Version 4
SHEET 1 880 680
WIRE 0 -656 -704 -656
WIRE 464 -592 208 -592
WIRE -752 -560 -1072 -560
WIRE -560 -560 -752 -560
WIRE -304 -560 -368 -560
WIRE -560 -528 -560 -560
WIRE -368 -528 -368 -560
WIRE 464 -528 464 -592
WIRE -704 -480 -704 -656
WIRE -592 -480 -704 -480
WIRE -576 -480 -592 -480
WIRE -464 -480 -480 -480
WIRE -448 -480 -464 -480
WIRE -320 -480 -352 -480
WIRE 208 -480 208 -592
WIRE -704 -464 -704 -480
WIRE 0 -432 0 -656
WIRE 144 -432 144 -480
WIRE 144 -432 0 -432
WIRE 272 -432 272 -480
WIRE 352 -432 272 -432
WIRE -1072 -416 -1072 -560
WIRE -128 -416 -144 -416
WIRE -464 -400 -464 -480
WIRE -144 -400 -144 -416
WIRE -144 -400 -464 -400
WIRE 144 -384 144 -432
WIRE 272 -384 272 -432
WIRE -240 -352 -464 -352
WIRE -160 -352 -240 -352
WIRE -160 -336 -160 -352
WIRE -128 -336 -160 -336
WIRE 208 -320 208 -384
WIRE 464 -320 464 -448
WIRE 464 -320 208 -320
WIRE -592 -272 -592 -480
WIRE -576 -272 -592 -272
WIRE -464 -272 -464 -352
WIRE -464 -272 -480 -272
WIRE -448 -272 -464 -272
WIRE -320 -272 -320 -480
WIRE -320 -272 -352 -272
WIRE -496 -208 -496 -224
WIRE -496 -208 -1024 -208
WIRE -304 -208 -304 -560
WIRE -304 -208 -496 -208
WIRE -752 -192 -752 -560
WIRE -432 -192 -432 -224
WIRE -432 -192 -752 -192
WIRE -1072 -96 -1072 -336
WIRE -1056 -96 -1072 -96
WIRE -1024 -96 -1024 -128
WIRE -1024 -96 -1056 -96
WIRE -704 -96 -704 -384
WIRE -320 -96 -320 -272
WIRE -320 -96 -704 -96
WIRE 352 -96 352 -432
WIRE 352 -96 -320 -96
WIRE -1056 -16 -1056 -96
WIRE -240 -16 -240 -352
WIRE -240 -16 -1056 -16
FLAG -160 -336 0
FLAG 464 -320 0
SYMBOL PowerProducts\\LT1249 224 192 R0
SYMATTR InstName U1
SYMBOL voltage -704 -480 R0
WINDOW 123 0 0 Left 0
WINDOW 39 0 0 Left 0
SYMATTR InstName V1
SYMATTR Value SINE(0 130 50)
SYMBOL nmos -480 -528 R90
SYMATTR InstName M1
SYMATTR Value BSC600N25NS3
SYMBOL nmos -448 -528 M90
SYMATTR InstName M2
SYMATTR Value BSC600N25NS3
SYMBOL nmos -352 -224 M270
SYMATTR InstName M3
SYMATTR Value BSC600N25NS3
SYMBOL nmos -576 -224 R270
SYMATTR InstName M4
SYMATTR Value BSC600N25NS3
SYMBOL voltage -1072 -432 R0
WINDOW 123 0 0 Left 0
WINDOW 39 0 0 Left 0
SYMATTR InstName V2
SYMATTR Value PULSE(0 260 0 0.01u 0.01u 0.01 0.02)
SYMBOL voltage -1024 -224 R0
WINDOW 123 0 0 Left 0
WINDOW 39 0 0 Left 0
SYMATTR InstName V3
SYMATTR Value PULSE(0 260 0.01 0.01u 0.01u 0.01 0.02)
SYMBOL res -144 -432 R0
SYMATTR InstName R1
SYMATTR Value 1000
SYMBOL diode 144 -464 R270
WINDOW 0 32 32 VTop 2
WINDOW 3 0 32 VBottom 2
SYMATTR InstName D1
SYMATTR Value GSD2004W-V
SYMBOL diode 208 -368 R270
WINDOW 0 32 32 VTop 2
WINDOW 3 0 32 VBottom 2
SYMATTR InstName D2
SYMATTR Value GSD2004W-V
SYMBOL diode 272 -496 R90
WINDOW 0 0 32 VBottom 2
WINDOW 3 32 32 VTop 2
SYMATTR InstName D3
SYMATTR Value GSD2004W-V
SYMBOL diode 208 -400 R90
WINDOW 0 0 32 VBottom 2
WINDOW 3 32 32 VTop 2
SYMATTR InstName D4
SYMATTR Value GSD2004W-V
SYMBOL res 448 -544 R0
SYMATTR InstName R2
SYMATTR Value 1000
TEXT -976 -656 Left 2 !.tran 0 200m 100m
