Version 4
SHEET 1 1876 680
WIRE 1168 -272 960 -272
WIRE 1552 -272 1168 -272
WIRE 1632 -272 1552 -272
WIRE 1744 -272 1632 -272
WIRE 1488 -192 1360 -192
WIRE 1552 -192 1552 -272
WIRE 1632 -192 1632 -272
WIRE 1744 -192 1744 -272
WIRE 1200 -176 1104 -176
WIRE 1168 -144 1168 -272
WIRE 1200 -144 1168 -144
WIRE 960 -48 960 -272
WIRE 992 -48 960 -48
WIRE 1104 -48 1104 -176
WIRE 1104 -48 1072 -48
WIRE 1408 -48 1104 -48
WIRE 1488 -48 1488 -192
WIRE 1488 -48 1472 -48
WIRE 1552 -48 1552 -128
WIRE 1552 -48 1488 -48
WIRE 1632 -48 1632 -112
WIRE 1632 -48 1552 -48
WIRE 1744 -48 1744 -112
WIRE 1744 -48 1632 -48
WIRE 1744 -16 1744 -48
WIRE 720 48 352 48
WIRE 784 48 720 48
WIRE 928 48 864 48
WIRE 992 48 928 48
WIRE 1152 48 1072 48
WIRE 1280 48 1248 48
WIRE 1312 48 1280 48
WIRE 1856 48 1392 48
WIRE 1280 64 1280 48
WIRE 352 80 352 48
WIRE 352 80 256 80
WIRE 448 80 352 80
WIRE 256 96 256 80
WIRE 448 96 448 80
WIRE 928 96 928 48
WIRE 992 96 928 96
WIRE 1200 112 1024 112
WIRE 720 144 720 48
WIRE 928 144 928 96
WIRE 1424 144 1296 144
WIRE 1200 160 1200 112
WIRE 1280 160 1280 144
WIRE 1280 160 1200 160
WIRE 256 176 256 160
WIRE 256 176 64 176
WIRE 448 176 448 160
WIRE 624 176 448 176
WIRE 1296 176 1296 144
WIRE 1296 176 1168 176
WIRE 256 192 256 176
WIRE 448 192 448 176
WIRE 1024 192 1024 112
WIRE 1056 192 1024 192
WIRE 1296 208 1168 208
WIRE 1328 208 1296 208
WIRE 1456 208 1392 208
WIRE 1584 208 1536 208
WIRE 1648 208 1584 208
WIRE 1712 208 1648 208
WIRE 1856 208 1856 48
WIRE 1856 208 1792 208
WIRE 64 224 64 176
WIRE 992 224 992 96
WIRE 1056 224 992 224
WIRE 1232 240 1232 96
WIRE 1232 240 1168 240
WIRE 1296 240 1296 208
WIRE 1424 240 1424 144
WIRE 1584 240 1584 208
WIRE 1056 256 992 256
WIRE 256 272 256 256
WIRE 352 272 256 272
WIRE 448 272 448 256
WIRE 448 272 352 272
WIRE 1232 272 1168 272
WIRE 352 352 352 272
WIRE 720 352 720 208
WIRE 928 352 928 208
WIRE 1232 352 1232 272
WIRE 1296 352 1296 304
WIRE 1424 352 1424 320
WIRE 1584 352 1584 320
WIRE 1856 352 1856 208
WIRE 64 400 64 304
WIRE 624 400 624 176
WIRE 624 400 64 400
WIRE 992 400 992 256
WIRE 1648 400 1648 208
WIRE 1648 400 992 400
FLAG 352 352 0
FLAG 720 352 0
FLAG 928 352 0
FLAG 1232 352 0
FLAG 1296 352 0
FLAG 1584 352 0
FLAG 1856 352 0
FLAG 1424 352 0
FLAG 1744 -16 0
SYMBOL diode 272 160 R180
WINDOW 0 24 64 Left 2
WINDOW 3 24 0 Left 2
SYMATTR InstName D1
SYMATTR Value RF2001NS2D
SYMBOL diode 464 160 R180
WINDOW 0 24 64 Left 2
WINDOW 3 24 0 Left 2
SYMATTR InstName D2
SYMATTR Value RF2001NS2D
SYMBOL diode 272 256 R180
WINDOW 0 24 64 Left 2
WINDOW 3 24 0 Left 2
SYMATTR InstName D3
SYMATTR Value RF2001NS2D
SYMBOL diode 464 256 R180
WINDOW 0 24 64 Left 2
WINDOW 3 24 0 Left 2
SYMATTR InstName D4
SYMATTR Value RF2001NS2D
SYMBOL voltage 64 208 R0
WINDOW 123 0 0 Left 0
WINDOW 39 0 0 Left 0
SYMATTR InstName V1
SYMATTR Value SINE(0 132.5 50)
SYMBOL cap 704 144 R0
SYMATTR InstName C1
SYMATTR Value 270n
SYMBOL ind2 768 64 R270
WINDOW 0 32 56 VTop 2
WINDOW 3 5 56 VBottom 2
SYMATTR InstName L1
SYMATTR Value 470µ
SYMATTR Type ind
SYMBOL cap 912 144 R0
SYMATTR InstName C2
SYMATTR Value 0.33µ
SYMBOL AutoGenerated\\UCC28730_netlist 1104 224 R0
SYMATTR InstName U1
SYMBOL ind2 976 64 R270
WINDOW 0 32 56 VTop 2
WINDOW 3 5 56 VBottom 2
SYMATTR InstName L2
SYMATTR Value 1500µ
SYMATTR Type ind
SYMBOL ind2 1088 -64 R90
WINDOW 0 5 56 VBottom 2
WINDOW 3 32 56 VTop 2
SYMATTR InstName L3
SYMATTR Value 6.308µ
SYMATTR Type ind
SYMBOL nmos 1152 96 R270
SYMATTR InstName M1
SYMATTR Value IPB65R420CFD
SYMBOL cap 1280 240 R0
SYMATTR InstName C3
SYMATTR Value 2.2µ
SYMBOL diode 1392 192 R90
WINDOW 0 0 32 VBottom 2
WINDOW 3 32 32 VTop 2
SYMATTR InstName D5
SYMBOL res 1552 192 R90
WINDOW 0 0 56 VBottom 2
WINDOW 3 32 56 VTop 2
SYMATTR InstName R1
SYMATTR Value 196k
SYMBOL res 1600 336 R180
WINDOW 0 36 76 Left 2
WINDOW 3 36 40 Left 2
SYMATTR InstName R2
SYMATTR Value 19.6k
SYMBOL ind2 1808 192 R90
WINDOW 0 4 56 VBottom 2
WINDOW 3 32 56 VTop 2
SYMATTR InstName L4
SYMATTR Value 62.21µ
SYMATTR Type ind
SYMBOL res 1408 224 R0
SYMATTR InstName R3
SYMATTR Value 115k
SYMBOL res 1264 48 R0
SYMATTR InstName R4
SYMATTR Value 34.8k
SYMBOL res 1408 32 R90
WINDOW 0 0 56 VBottom 2
WINDOW 3 32 56 VTop 2
SYMATTR InstName R5
SYMATTR Value 24
SYMBOL AutoGenerated\\UCC24650 1280 -160 R0
SYMATTR InstName U2
SYMBOL diode 1472 -64 R90
WINDOW 0 0 32 VBottom 2
WINDOW 3 32 32 VTop 2
SYMATTR InstName D6
SYMBOL cap 1536 -192 R0
SYMATTR InstName C4
SYMATTR Value 33µ
SYMBOL res 1616 -208 R0
SYMATTR InstName R6
SYMATTR Value 105k
SYMBOL res 1728 -208 R0
SYMATTR InstName R7
SYMATTR Value 225
TEXT 776 -48 Left 2 !K1 L4 L2 L3 1
TEXT 648 -112 Left 2 !.tran 0 200m 100m
