Version 4
SHEET 1 880 680
WIRE -560 -528 -560 -560
WIRE -368 -528 -368 -560
WIRE -592 -480 -704 -480
WIRE -576 -480 -592 -480
WIRE -464 -480 -480 -480
WIRE -448 -480 -464 -480
WIRE -320 -480 -352 -480
WIRE -704 -464 -704 -480
WIRE -1072 -416 -1072 -448
WIRE -128 -416 -144 -416
WIRE -464 -400 -464 -480
WIRE -144 -400 -144 -416
WIRE -144 -400 -464 -400
WIRE -160 -352 -464 -352
WIRE -160 -336 -160 -352
WIRE -128 -336 -160 -336
WIRE -1072 -320 -1072 -336
WIRE -592 -272 -592 -480
WIRE -576 -272 -592 -272
WIRE -464 -272 -464 -352
WIRE -464 -272 -480 -272
WIRE -448 -272 -464 -272
WIRE -320 -272 -320 -480
WIRE -320 -272 -352 -272
WIRE -1024 -208 -1024 -240
WIRE -496 -192 -496 -224
WIRE -432 -192 -432 -224
WIRE -1024 -112 -1024 -128
WIRE -704 -96 -704 -384
WIRE -320 -96 -320 -272
WIRE -320 -96 -704 -96
FLAG -1072 -320 0
FLAG -1024 -112 0
FLAG -1072 -448 Q0Q2
FLAG -560 -560 Q0Q2
FLAG -432 -192 Q0Q2
FLAG -1024 -240 Q1Q3
FLAG -368 -560 Q1Q3
FLAG -496 -192 Q1Q3
SYMBOL PowerProducts\\LT1249 224 192 R0
SYMATTR InstName U1
SYMBOL voltage -704 -480 R0
WINDOW 123 0 0 Left 0
WINDOW 39 0 0 Left 0
SYMATTR InstName V1
SYMATTR Value SINE(0 130 50)
SYMBOL nmos -480 -528 R90
SYMATTR InstName M1
SYMBOL nmos -448 -528 M90
SYMATTR InstName M2
SYMBOL nmos -352 -224 M270
SYMATTR InstName M3
SYMBOL nmos -576 -224 R270
SYMATTR InstName M4
SYMBOL voltage -1072 -432 R0
WINDOW 123 0 0 Left 0
WINDOW 39 0 0 Left 0
SYMATTR InstName V2
SYMATTR Value PULSE(0 5 0 0.01u 0.01u 0.01 0.02)
SYMBOL voltage -1024 -224 R0
WINDOW 123 0 0 Left 0
WINDOW 39 0 0 Left 0
SYMATTR InstName V3
SYMATTR Value PULSE(0 5 0.01 0.01u 0.01u 0.01 0.02)
SYMBOL res -144 -432 R0
SYMATTR InstName R1
SYMATTR Value 1000
TEXT -976 -712 Left 2 !.tran 0 20m 10m
