**$ENCRYPTED_LIB
**$INTERFACE
* source UCC24650
*
*
*****************************************************************************
* (C) Copyright 2016 Texas Instruments Incorporated. All rights reserved.                                            
*****************************************************************************
** This model is designed as an aid for customers of Texas Instruments.                                             
** TI and its licensors and suppliers make no warranties, either expressed                                           
** or implied, with respect to this model, including the warranties of                                                    
** merchantability or fitness for a particular purpose. The model is                                                      
** provided solely on an "as is" basis. The entire risk as to its quality                                                    
** and performance is with the customer.                                                                                         
*****************************************************************************
*
* Released by: WEBENCH Design Center, Texas Instruments Inc.
* Part: UCC24650
* Date: 1/6/2016
* Model Type: Transient 
* Simulator:  PSPICE
* Simulator Version: 16.2
* EVM Order Number: UCC28730EVM-552
* EVM Users Guide: 
* Datasheet: SLUSBL6 FEBRUARY 2015
* Model Version: Beta 1.0
* Release to Web.
****************************************************************************

****************************************************************************
.SUBCKT UCC24650 WAKE VDD GND ENSR NC

$CDNENCSTART
eee8c5c7a2bc4b01f045f303678664e7916da0bae22e8cb0bba041dd67c69ce448ea70148a9ac1670c8926c1ac5057c8ccfcd77bf87ca9dcabbffa8a45de9c8c
e0555798e9c8dcc729df58602274c776e2e8771cb0b575524125b1c89e6699a16fc0cc6f0baa983e7b2eefa8a54f20284e59e44ed12f0b1a3e3ccd5b22202732
2fdec606fa8d14c711ae6e4f654805622e47b765f62e6928c0135e21edd1296af9576d0e939501eecd0d1f2b97642aaf644126c9831a96bd1bdd47fa2d24a96e
77f5245480399368c0a7845ed2c86ea5a644769af29a0859f4390fedfc8b8d9028fc0ddc84265fddd847188fc39ab7101d1faf8c4bd098c5840e3391a19a837c
a06c775547ebac49cae85e160319b1ad23f363b602b1468c255b87ad09be0a780669ad39ebc7181cee5cd38de51e3661e3ed3223aa8d5a15b51db955f9ec12a1
327afc17e98f89c35b6a43fe56a15e54e15e3e553ad376cbc4b1c9547eee4b60d2bbd7e847d638e1e776e9b255bda08cbfd81d659a09e4b30c138f656e983247
31bbfa71d5efb6fe102372497787b35c51e71b336f318a9d92ae92e5259df45eb79190594afbaf5c86a0c0cfb5146eb6a74a173461864bfb7889c943e1cc778d
77f5245480399368c0a7845ed2c86ea583f59f77c180c594f4390fedfc8b8d90532491d4938c88f54f68041e9d6d920128fc0ddc84265fdd4974bdcae1f0dcea
6a4532e820d54079b045c149b70fbd5151e71b336f318a9d92ae92e5259df45eb79190594afbaf5c86a0c0cfb5146eb6a74a173461864bfb7889c943e1cc778d
cdaa385411811e27bfd81d659a09e4b32637e9cac2aa5ceafd49a287c76beca9cf3db11be05038857acc38212145a4c6ec2cebdb02ab3675dc7f008fda764cf4
77f5245480399368c0a7845ed2c86ea502693d3b7c9658e4f4390fedfc8b8d90264a178b394da1d79b2453fb2b10d3d0c0a7845ed2c86ea53f35efdc4a24fa94
c0fd068cddfb30ba6289fd182051766469f560e9d52aabdda4ebe83daa20e491ff9461dab3ee6fca6d250b1ba44e7f3f8d13230d4c21cde32feec3b9deec032d
327afc17e98f89c35b6a43fe56a15e542633abf2e659c54918ce2e01e09fd061fadf201fce42c39b1c623a12bb58abffc091ad382ad6b982c27a0fe47ba19b0a
4651b4c215cbe2b1f448aa8b445158d3c55c8187f39b70bedccedd2dd2cd0c6f4d8fe8239d3f40181b06a2901272b6831ed143820dbd899f57e7ea64a632e0f9
4b6085f2012636675a0aa31c52cddba976617f42cd5d956b508d9c38a0fca4a4739d5590792af278da14e00f6f5ae8a8d11e18ad2690f457f039bd52d23e0297
6d37d3f824b3ae62c0a7845ed2c86ea53016a137105ca47cf5f581c7d2cb154533556ae0e6d84f2ad29597ea4e4f14d4aa886bedec0de39dc3a520f8d5652304
478a87bc5b8e6cf923f363b602b1468c255b87ad09be0a780669ad39ebc7181cee5cd38de51e3661e3ed3223aa8d5a15b641642ad431572cf5b92b7dae350478
77f5245480399368c0a7845ed2c86ea51a9d61a482e51e7b89b38b97f417aab40b554f4431a00e09bb14df3100f7c8c3bd16cab6adfe3a06c7a9119214061ced
d29597ea4e4f14d4076102fae6369fa151e71b336f318a9d92ae92e5259df45eb79190594afbaf5c86a0c0cfb5146eb6a74a173461864bfb7889c943e1cc778d
327afc17e98f89c35b6a43fe56a15e545256c5cb3c79470949d09b28e8897230d2bbd7e847d638e1e776e9b255bda08cbfd81d659a09e4b30c138f656e983247
31bbfa71d5efb6fe825b843a3aa9ddcd6289fd182051766469f560e9d52aabdda4ebe83daa20e491ff9461dab3ee6fca6d250b1ba44e7f3f2c1d93ea4c78e59e
4df69eafa875f897c0a7845ed2c86ea596e68550d62e1189f4390fedfc8b8d9028fc0ddc84265fddd847188fc39ab7102bae27765286efc69632ea6f8c202cea
77f5245480399368c0a7845ed2c86ea5d385a696621360da33556ae0e6d84f2ad29597ea4e4f14d46a54a8c40f06d6c44d59abfaaafbd3b7903185999f634355
bb14df3100f7c8c33f446568f2f7230ce2e8771cb0b575524125b1c89e6699a16fc0cc6f0baa983e7b2eefa8a54f20284e59e44ed12f0b1a3e3ccd5b22202732
3addf1521657d15533556ae0e6d84f2af1aa5e5dfe797f43644126c9831a96bd508d9c38a0fca4a4739d5590792af278da14e00f6f5ae8a8d905772ca6db0156
77f5245480399368c0a7845ed2c86ea5b90a5674777daf30f4390fedfc8b8d9028fc0ddc84265fddd847188fc39ab710c7e3401e85d07da0840e3391a19a837c
a06c775547ebac4972837f403f260b7923f363b602b1468c255b87ad09be0a780669ad39ebc7181cee5cd38de51e3661e3ed3223aa8d5a15b51db955f9ec12a1
327afc17e98f89c35b6a43fe56a15e545256c5cb3c794709099069519fc77cfaa829372331af95e0456676176791578bd2bbd7e847d638e106ca5c9d845745cf
a5257eba54077ab5021166ac3753b7b823f363b602b1468c255b87ad09be0a780669ad39ebc7181cee5cd38de51e3661e3ed3223aa8d5a15b51db955f9ec12a1
4b6085f2012636676f3085441f0c7a2ae2e8771cb0b575524125b1c89e6699a16fc0cc6f0baa983e7b2eefa8a54f20284e59e44ed12f0b1a3e3ccd5b22202732
77f5245480399368c0a7845ed2c86ea5756064923945c0eff4390fedfc8b8d9028fc0ddc84265fddd847188fc39ab710d08ca5913e03e771840e3391a19a837c
e3b47bfdbfa7de0d0277c7a6e58286147acc38212145a4c6ec2cebdb02ab36758fd2acd21799881362b755e6ba5eaefdc7f6a8d7a54df5931af1fe4a342af836
cdaa385411811e27a9003e8de73f15b3af17933cdab6f1f6dccedd2dd2cd0c6f4d8fe8239d3f40181b06a2901272b6831ed143820dbd899f57e7ea64a632e0f9
77f5245480399368c0a7845ed2c86ea56cee24a8250bba5789b38b97f417aab40b554f4431a00e09264b34035035b48fbf20b07a2a8f665bc7a9119214061ced
d29597ea4e4f14d480257e55494768bb51e71b336f318a9d92ae92e5259df45eb79190594afbaf5c86a0c0cfb5146eb6a74a173461864bfb7889c943e1cc778d
327afc17e98f89c35b6a43fe56a15e5476698f98ef749b4df2491814fe5afb22d2bbd7e847d638e1e776e9b255bda08cbfd81d659a09e4b30c138f656e983247
31bbfa71d5efb6fe825b843a3aa9ddcd6289fd182051766469f560e9d52aabdda4ebe83daa20e491ff9461dab3ee6fca6d250b1ba44e7f3f2c1d93ea4c78e59e
655ac766bc130201c0a7845ed2c86ea5dca80aa4e1e6caa43d1742a047c3f2a618ce2e01e09fd061fadf201fce42c39b184273f90b63f48c66a6c77c2539d089
05b3bb1a101b268851e71b336f318a9d92ae92e5259df45eb79190594afbaf5c86a0c0cfb5146eb6a74a173461864bfb8df90ab2acb875207d0993f6d8225033
2fdec606fa8d14c7c0a7845ed2c86ea5a6b3a7cb9041d6dc89b38b97f417aab40b554f4431a00e09264b34035035b48fbf20b07a2a8f665bc7a9119214061ced
bf1a18527224ae51a21e2d8b844e4481644126c9831a96bd508d9c38a0fca4a4739d5590792af278da14e00f6f5ae8a8d11e18ad2690f457f039bd52d23e0297
e8ac5e09ea758be799461f50c3958630e4eedd2437bcf3a111132723a6b92dbfab9d93b370d5415f743ad6b08f932588e06b80b52dccac3c0a0cc1d8316fe4c6
77f5245480399368c0a7845ed2c86ea579568d22fc89292af4390fedfc8b8d9066f5d3973923b9bb9b2453fb2b10d3d0c0a7845ed2c86ea590ed261352d38106
327afc17e98f89c35b6a43fe56a15e545256c5cb3c794709e8fa4e8b1eecaf0e8dcea2cdd2d3d5cc9783ae8e4821c68f44286f328a01b559a8576cb04709ca0d
933cef0b2eff3dcf14116b5b1ff5095de2e8771cb0b575524125b1c89e6699a16fc0cc6f0baa983e7b2eefa8a54f20284e59e44ed12f0b1a3e3ccd5b22202732
4df69eafa875f897c0a7845ed2c86ea51c6c8985c25f6af7f4390fedfc8b8d9028fc0ddc84265fddd847188fc39ab710e5679e32c83227996812e1503e922018
77f5245480399368c556005f2d142fa5756064923945c0eff4390fedfc8b8d9028fc0ddc84265fdd11106696c0ee94f807ce59e6827e3e67840e3391a19a837c
8311af3d457f1ca70277c7a6e58286147acc38212145a4c6ec2cebdb02ab36758fd2acd21799881362b755e6ba5eaefdc7f6a8d7a54df5931af1fe4a342af836
cdaa385411811e27a9003e8de73f15b3af17933cdab6f1f6dccedd2dd2cd0c6f4d8fe8239d3f40181b06a2901272b6831ed143820dbd899f57e7ea64a632e0f9
6d37d3f824b3ae62c556005f2d142fa57c16d27ad9f66a53f5f581c7d2cb154533556ae0e6d84f2a106a216b24e562219c8c9568263d1bad9bf75c479d31cd2e
23b782b3d6a37df1e2e8771cb0b575524125b1c89e6699a16fc0cc6f0baa983e7b2eefa8a54f20284e59e44ed12f0b1af66939e32c43d03396c5560d244a03e1
77f5245480399368c556005f2d142fa5e0086e5c290ce6fcf4390fedfc8b8d9028fc0ddc84265fdd11106696c0ee94f8afab3c10963bbaf2840e3391a19a837c
6af64000983acedcf63c091e5c35311123f363b602b1468c255b87ad09be0a780669ad39ebc7181cee5cd38de51e3661e3ed3223aa8d5a15b51db955f9ec12a1
539907bbce3accce75963efd3ee34e16b0320154828380204e26894942562954f47a15dc89514f6dad0b6fb86357180409f392a0688e506ce4a55740b2a2d88f
6d37d3f824b3ae62c556005f2d142fa53753f74541ef4664f5f581c7d2cb154533556ae0e6d84f2ad2d10ec44ba361d17370976f35d7f19214cecd372eae3548
ad4bde1285118b0c644126c9831a96bd508d9c38a0fca4a4739d5590792af278da14e00f6f5ae8a8d11e18ad2690f4573f8605f6fa7919557d501c4fac310b0e
77f5245480399368c556005f2d142fa58d5fa42b92e54aecbbf8579897ab330a6af64000983acedcf87fe3f93c3461228f935b28b99245a0fa6d91b4fdd7d6b0
11106696c0ee94f834f25a65bb91a47e51e71b336f318a9d92ae92e5259df45eb79190594afbaf5c86a0c0cfb5146eb6a74a173461864bfb7889c943e1cc778d
fe1561a247231b8233556ae0e6d84f2a0b5ba0d9b45fbba6641d3019da38fe06dccedd2dd2cd0c6f4d8fe8239d3f40181b06a2901272b68388be07e7979ca6d8
77f5245480399368c556005f2d142fa579568d22fc89292af4390fedfc8b8d9028fc0ddc84265fdd11106696c0ee94f80d410eb544bdc7b8840e3391a19a837c
6af64000983acedc9872cdd11280975823f363b602b1468c255b87ad09be0a780669ad39ebc7181cee5cd38de51e3661e3ed3223aa8d5a15b51db955f9ec12a1
327afc17e98f89c3873a567466b29d047cc1f421f136c3f4c6bc39bea1cb1d878dcea2cdd2d3d5cc9783ae8e4821c68f44286f328a01b559a8576cb04709ca0d
933cef0b2eff3dcf14116b5b1ff5095de2e8771cb0b575524125b1c89e6699a16fc0cc6f0baa983e7b2eefa8a54f20284e59e44ed12f0b1a3e3ccd5b22202732
77f5245480399368c556005f2d142fa5502fece8ee8623daf4390fedfc8b8d90264a178b394da1d79b2453fb2b10d3d0c556005f2d142fa58ef5297b3c22469b
c94d7dce05bfaf0c6289fd182051766469f560e9d52aabdda4ebe83daa20e491ff9461dab3ee6fca6d250b1ba44e7f3f8d13230d4c21cde32feec3b9deec032d
327afc17e98f89c3873a567466b29d042ee9372a72f3809e122e6418d168fc99873a567466b29d04a7a93793f0b45bddea10d872ecde966a50794576b4f63d0d
5e907deffd12c5ffdd06c2baef735cae36806a8e381bf9a0508d9c38a0fca4a4739d5590792af278da14e00f6f5ae8a8d11e18ad2690f457f039bd52d23e0297
8767f397bff4c3a731bbfa71d5efb6fe102372497787b35c51e71b336f318a9d92ae92e5259df45eb79190594afbaf5c86a0c0cfb5146eb60785df26527e755a
655ac766bc130201c556005f2d142fa5dca80aa4e1e6caa43d1742a047c3f2a618ce2e01e09fd0610aa122130d715b4e3178170dfce3ccb1d036eef8f911c057
dc20ff12f33f331d7acc38212145a4c6ec2cebdb02ab36758fd2acd21799881362b755e6ba5eaefdc7f6a8d7a54df593ace95de0e8b44f80b9c66a662f3c740f
77f5245480399368c556005f2d142fa583f59f77c180c594f4390fedfc8b8d90532491d4938c88f54f68041e9d6d920128fc0ddc84265fdd543766f05cf704c2
a88f0d37aeef9dcbe2e8771cb0b575524125b1c89e6699a16fc0cc6f0baa983e7b2eefa8a54f20284e59e44ed12f0b1af66939e32c43d03396c5560d244a03e1
539907bbce3accce75963efd3ee34e16b0320154828380204e26894942562954f47a15dc89514f6dad0b6fb86357180409f392a0688e506ce4a55740b2a2d88f
3a66a7f49ae927b7c556005f2d142fa53b117a3f8a7edca32e47b765f62e692818ce2e01e09fd061c1815bdcd7f6dd50672c3a34c8dfa58935ef5f055c906f91
f264d7739bece3a518ce2e01e09fd0610aa122130d715b4e685cdb6ead4d405b5e99ec55fc764e8de73070a45f1d549c99461f50c3958630f23de640b5561762
4df69eafa875f897c556005f2d142fa55e9a9e0cb673f6a9f4390fedfc8b8d9028fc0ddc84265fdd11106696c0ee94f8a12512d996428567850672099a86a394
2fdec606fa8d14c7c556005f2d142fa56bb02f7c3ba3e30e89b38b97f417aab41eeb0b018d4f6ec5a61b547bb2858887c2db80e67a06a166c7a9119214061ced
d2d10ec44ba361d1d0493af6f12f60287acc38212145a4c6ec2cebdb02ab36758fd2acd21799881362b755e6ba5eaefdc7f6a8d7a54df5931af1fe4a342af836
6cac1edce111b2c54a43651c71ddb49199461f50c3958630e4eedd2437bcf3a111132723a6b92dbfab9d93b370d5415f743ad6b08f932588bf1583a3da30f12e
77f5245480399368c556005f2d142fa5d385a696621360da33556ae0e6d84f2ad2d10ec44ba361d1a67311cb2aebcb6e33556ae0e6d84f2acf92b12ccbfc564e
39fa69349f3e940ee2e8771cb0b575524125b1c89e6699a16fc0cc6f0baa983e7b2eefa8a54f20284e59e44ed12f0b1af66939e32c43d03396c5560d244a03e1
327afc17e98f89c3873a567466b29d048f7cd8ffc531ebb6f11b7b32074a01fb28fc0ddc84265fdddf7ec5487cfb88e851e71b336f318a9d174be93ad92cdd40
77f5245480399368c556005f2d142fa55e57969676231e6cf4390fedfc8b8d9028fc0ddc84265fdd11106696c0ee94f8daf1455288a2b098840e3391a19a837c
6af64000983acedcf5cc2ae63153321e7acc38212145a4c6ec2cebdb02ab36758fd2acd21799881362b755e6ba5eaefdc7f6a8d7a54df5931af1fe4a342af836
8ebe7f882e8d3d541933952b4dcad44c23f363b602b1468c255b87ad09be0a780669ad39ebc7181cee5cd38de51e3661e3ed3223aa8d5a15b51db955f9ec12a1
77f5245480399368c556005f2d142fa5c46f7482462ab2b6f4390fedfc8b8d9066f5d3973923b9bb9b2453fb2b10d3d0c556005f2d142fa5806efaaeb2b49e85
7118bc1a3d11056399461f50c3958630e4eedd2437bcf3a111132723a6b92dbfab9d93b370d5415f743ad6b08f932588e06b80b52dccac3c0a0cc1d8316fe4c6
327afc17e98f89c3873a567466b29d0495e802a03a61e33c7662f9e929a451ee8318958aa75d45564651b4c215cbe2b1f448aa8b445158d32d602cb3c5dbd2bb
ad0b6fb86357180409f392a0688e506c99461f50c3958630e4eedd2437bcf3a111132723a6b92dbfab9d93b370d5415f743ad6b08f932588bf1583a3da30f12e
77f5245480399368c556005f2d142fa59cf8d605fbb51ae1f4390fedfc8b8d9028fc0ddc84265fdd67ceb284a3cafc8f32e3e18af98a05b6fa6d91b4fdd7d6b0
5cd6dcb756edf709a6b5fbf4542e095adccedd2dd2cd0c6f4d8fe8239d3f40181b06a2901272b6831ed143820dbd899f76d603ab5eb6ee65488d628ee0a4d3b5
327afc17e98f89c3873a567466b29d0455d1238d8db8160db60305a69571cbc060a188d940e604c11933952b4dcad44ca68ba69006c80e09d9eda28d3f69b96f
3267e49cc155bb17aad0cae5ebf3019a508d9c38a0fca4a4739d5590792af278da14e00f6f5ae8a8d11e18ad2690f4573f8605f6fa7919557d501c4fac310b0e
77f5245480399368c556005f2d142fa5cdcd9b6eb6b1595bf4390fedfc8b8d9028fc0ddc84265fdd11106696c0ee94f80ab93c50eb6db7ba2edf9c939dcbe778
327afc17e98f89c3873a567466b29d04b9a5755b5161e4da461ba89137e8f4411eeb0b018d4f6ec5ebae4fdd7f7a538118ce2e01e09fd0610c43e715b2c29540
11024d64a37923ed4a6a3f8d859eb355dccedd2dd2cd0c6f4d8fe8239d3f40181b06a2901272b6831ed143820dbd899f76d603ab5eb6ee65488d628ee0a4d3b5
55a6fdd1dc76456ab6ac851f8c19bcbc88b96b7c831faa4a4f52237e05fcdaf4b31205aa407e75cd998fd920f4f159aa15dda4ec81e72d74d38aff4e12555a5d
77f5245480399368c556005f2d142fa5a5338b6f4f3d30abf4390fedfc8b8d9028fc0ddc84265fdd11106696c0ee94f8ae2867aa2b0f6cd4840e3391a19a837c
a430fe4c35a68bb2c3de996b74b21397508d9c38a0fca4a4739d5590792af278da14e00f6f5ae8a8d11e18ad2690f4573f8605f6fa7919557d501c4fac310b0e
539907bbce3accce75963efd3ee34e16b0320154828380204e26894942562954f47a15dc89514f6dad0b6fb86357180409f392a0688e506ce4a55740b2a2d88f
2fdec606fa8d14c7c556005f2d142fa5cae130d8e22cffe63ffe42bd8ca53c12a5973be32ed26028c5bedb0284fc73e50592f1b827f48638ca847b64427a98a8
042f0c0c78bb0deb7acc38212145a4c6ec2cebdb02ab36758fd2acd21799881362b755e6ba5eaefdc7f6a8d7a54df593ace95de0e8b44f80b9c66a662f3c740f
4df69eafa875f897c556005f2d142fa596e68550d62e1189f4390fedfc8b8d9028fc0ddc84265fdd11106696c0ee94f896b701115b0663279632ea6f8c202cea
2fdec606fa8d14c7c556005f2d142fa5f026e1a0c8422cc7f4390fedfc8b8d9028fc0ddc84265fdd67ceb284a3cafc8f9b60f6d9f45e083896c6024c45326550
24fdfd9bb2e10b0799461f50c3958630e4eedd2437bcf3a111132723a6b92dbfab9d93b370d5415f743ad6b08f932588e06b80b52dccac3c0a0cc1d8316fe4c6
77f5245480399368c556005f2d142fa51bd5e48a3b9ede33ac73e51ea6171029ec3705d2929fdb9a33556ae0e6d84f2a106a216b24e562217d4cbce9e49801c0
327afc17e98f89c3873a567466b29d04b828a24590c65f91e7b3ab84a55efeee1eeb0b018d4f6ec5ebae4fdd7f7a538118ce2e01e09fd0610c43e715b2c29540
5b0ae09e9bb8989651e71b336f318a9d92ae92e5259df45eb79190594afbaf5c86a0c0cfb5146eb6a74a173461864bfb8df90ab2acb875207d0993f6d8225033
55a6fdd1dc76456ab6ac851f8c19bcbc88b96b7c831faa4a4f52237e05fcdaf4b31205aa407e75cd998fd920f4f159aa15dda4ec81e72d74d38aff4e12555a5d
77f5245480399368c556005f2d142fa5f847b9e0e9d66ac5f4390fedfc8b8d9028fc0ddc84265fdd11106696c0ee94f8daf1455288a2b098840e3391a19a837c
6af64000983acedc836523a89b5b9d3523f363b602b1468c255b87ad09be0a780669ad39ebc7181cee5cd38de51e3661e3ed3223aa8d5a15b51db955f9ec12a1
539907bbce3accce75963efd3ee34e16b0320154828380204e26894942562954f47a15dc89514f6dad0b6fb86357180409f392a0688e506ce4a55740b2a2d88f
6d37d3f824b3ae62c556005f2d142fa514f48106c0b9141ff5f581c7d2cb154533556ae0e6d84f2ad2d10ec44ba361d171eabf4b5f8d4aab2ae3db240ae33a02
62d766f77596a54b51e71b336f318a9d92ae92e5259df45eb79190594afbaf5c86a0c0cfb5146eb6a74a173461864bfb8df90ab2acb875207d0993f6d8225033
77f5245480399368c556005f2d142fa539a9ab74bd0fd43ef4390fedfc8b8d90264a178b394da1d79b2453fb2b10d3d0c556005f2d142fa5806efaaeb2b49e85
7118bc1a3d11056399461f50c3958630e4eedd2437bcf3a111132723a6b92dbfab9d93b370d5415f743ad6b08f932588e06b80b52dccac3c0a0cc1d8316fe4c6
327afc17e98f89c3873a567466b29d04b9a5755b5161e4da49efafff0127d76a8dcea2cdd2d3d5cc9783ae8e4821c68f44286f328a01b559a8576cb04709ca0d
933cef0b2eff3dcf14116b5b1ff5095de2e8771cb0b575524125b1c89e6699a16fc0cc6f0baa983e7b2eefa8a54f20284e59e44ed12f0b1a3e3ccd5b22202732
6d37d3f824b3ae62c556005f2d142fa53016a137105ca47cf5f581c7d2cb154533556ae0e6d84f2a106a216b24e56221fe758c47b30c6edb55f0eeba7d682bdf
760b7acfc94bff3224fdfd9bb2e10b0799461f50c3958630e4eedd2437bcf3a111132723a6b92dbfab9d93b370d5415f743ad6b08f932588bf1583a3da30f12e
77f5245480399368c556005f2d142fa58e73b51ee5f47be2f4390fedfc8b8d9028fc0ddc84265fdd11106696c0ee94f89b9dd7d2c3eeaa62840e3391a19a837c
6af64000983acedc2a256d404a2e3d6723f363b602b1468c255b87ad09be0a780669ad39ebc7181cee5cd38de51e3661e3ed3223aa8d5a15b51db955f9ec12a1
327afc17e98f89c3873a567466b29d04a7a93793f0b45bdd323b62fd320d72a3d2bbd7e847d638e1e776e9b255bda08cbfd81d659a09e4b30c138f656e983247
31bbfa71d5efb6fe825b843a3aa9ddcd6289fd182051766469f560e9d52aabdda4ebe83daa20e491ff9461dab3ee6fca6d250b1ba44e7f3f2c1d93ea4c78e59e
2fdec606fa8d14c7c556005f2d142fa57805af8893975b3ff4390fedfc8b8d9028fc0ddc84265fdd5cd6dcb756edf709003c60a7043c6112c868632f458f191c
23b782b3d6a37df1e2e8771cb0b575524125b1c89e6699a16fc0cc6f0baa983e7b2eefa8a54f20284e59e44ed12f0b1af66939e32c43d03396c5560d244a03e1
2fdec606fa8d14c7c556005f2d142fa504862ae74a7e02fef4390fedfc8b8d9028fc0ddc84265fdd5cd6dcb756edf709652b4c2faf0e9f01fa6d91b4fdd7d6b0
67ceb284a3cafc8fdebc40ce1f1afcf6e2e8771cb0b575524125b1c89e6699a16fc0cc6f0baa983e7b2eefa8a54f20284e59e44ed12f0b1a3e3ccd5b22202732
0418cc75e3d7cf68710f626c2faf14a6dccedd2dd2cd0c6f4d8fe8239d3f40181b06a2901272b6831ed143820dbd899f76d603ab5eb6ee65488d628ee0a4d3b5
77f5245480399368c556005f2d142fa572e37aba19f57455f4390fedfc8b8d9028fc0ddc84265fddc661594b63489d659c3377eb54ac3937c7a9119214061ced
106a216b24e56221bcbeb76293e391d051e71b336f318a9d92ae92e5259df45eb79190594afbaf5c86a0c0cfb5146eb6a74a173461864bfb7889c943e1cc778d
a8781af426627ebb8dcea2cdd2d3d5cc9783ae8e4821c68f44286f328a01b5597353264ebf8b05513267e49cc155bb17aad0cae5ebf3019a1bdd47fa2d24a96e
77f5245480399368c556005f2d142fa56bbaf0240c981eb5f4390fedfc8b8d9028fc0ddc84265fdd11106696c0ee94f8ae2867aa2b0f6cd4840e3391a19a837c
db3c10e0d5c064526b4f04a6821eec63dccedd2dd2cd0c6f4d8fe8239d3f40181b06a2901272b6831ed143820dbd899f76d603ab5eb6ee65488d628ee0a4d3b5
809034502dc71cb175963efd3ee34e16b0320154828380204e26894942562954f47a15dc89514f6d82d2f1439037ee2f23f363b602b1468c5f9137bf5d4f2f81
4df69eafa875f897a882635083251b351c6c8985c25f6af7f4390fedfc8b8d9028fc0ddc84265fdd5af98e72193e4b1feb63548dd2a3eeec4ab5f27fab085d24
4df69eafa875f897a882635083251b35228954c61bfcc4d4f4390fedfc8b8d9028fc0ddc84265fdd5af98e72193e4b1f2003277dfc337785da4dfc47767a33a8
77f5245480399368a882635083251b351a9d61a482e51e7b89b38b97f417aab40b554f4431a00e096b71f60815fe4764b0bcf1b92d82bd35d38aff4e12555a5d
327afc17e98f89c351e6de4fc7ee308ddb3788197f544adbcefd1b81e3622502d2bbd7e847d638e1e776e9b255bda08cbfd81d659a09e4b30c138f656e983247
31bbfa71d5efb6fe825b843a3aa9ddcd6289fd182051766469f560e9d52aabdda4ebe83daa20e491ff9461dab3ee6fca6d250b1ba44e7f3f2c1d93ea4c78e59e
3a66a7f49ae927b7a882635083251b353b117a3f8a7edca32e47b765f62e692818ce2e01e09fd061794eb7c261a6324273651fe36a6a050db78c858b23280e43
46f8826287b02157dccedd2dd2cd0c6f4d8fe8239d3f40181b06a2901272b6831ed143820dbd899f76d603ab5eb6ee6510492f25caef92eb47a78586594d74ac
f264d7739bece3a518ce2e01e09fd061794eb7c261a63242b9a60c61bb1114fe5e99ec55fc764e8de73070a45f1d549c99461f50c3958630f23de640b5561762
77f5245480399368a882635083251b35b727911d7e733d4d89b38b97f417aab40b554f4431a00e096b71f60815fe476452025f09f87098d7c7a9119214061ced
1af01f7f43de442ee326000b6973364c51e71b336f318a9d92ae92e5259df45eb79190594afbaf5c86a0c0cfb5146eb6a74a173461864bfb7889c943e1cc778d
327afc17e98f89c3d6692bec9ddf7ed46672c8b52932e43a8dcea2cdd2d3d5cc9783ae8e4821c68f44286f328a01b5597353264ebf8b05514faeff92adf05540
14116b5b1ff5095de2e8771cb0b575524125b1c89e6699a16fc0cc6f0baa983e7b2eefa8a54f20284e59e44ed12f0b1af66939e32c43d03396c5560d244a03e1
77f5245480399368a882635083251b3577cf07c3cb2071ca33556ae0e6d84f2a1af01f7f43de442e59d332f085b2bc59bbf8579897ab330a8ef5297b3c22469b
143287eeeda988e94a6a3f8d859eb355dccedd2dd2cd0c6f4d8fe8239d3f40181b06a2901272b6831ed143820dbd899f76d603ab5eb6ee65488d628ee0a4d3b5
719238912588d400bbf8579897ab330af2349bedbb680d1b303d7240d8c3139ddccedd2dd2cd0c6f4d8fe8239d3f40181b06a2901272b68388be07e7979ca6d8
3a66a7f49ae927b7a882635083251b35605ddb46945b74e42e47b765f62e692818ce2e01e09fd061794eb7c261a63242d220342f71bc41fcb78c858b23280e43
dd109e4cbf8dbd2899461f50c3958630e4eedd2437bcf3a111132723a6b92dbfab9d93b370d5415f743ad6b08f932588e06b80b52dccac3c0a0cc1d8316fe4c6
05b5f1398a5d6f69f1a9fb457fc1290e0b554f4431a00e096b71f60815fe4764409b95baa510c153301c7a3ac4db775a54c35a1433df1bd1d38aff4e12555a5d
7775c169b85da59023f363b602b1468c255b87ad09be0a780669ad39ebc7181cee5cd38de51e3661e3ed3223aa8d5a15b641642ad431572cf5b92b7dae350478
77f5245480399368a882635083251b35f24e70fc0d776515f4390fedfc8b8d9028fc0ddc84265fdd5af98e72193e4b1f0d34c3d7538f6fdf840e3391a19a837c
4f21d282db2cd1294bd43605885ec58323f363b602b1468c255b87ad09be0a780669ad39ebc7181cee5cd38de51e3661e3ed3223aa8d5a15b51db955f9ec12a1
327afc17e98f89c351e6de4fc7ee308ddb3788197f544adb63c6152e42df5261d7bc39ec8aae9fde456676176791578bd2bbd7e847d638e106ca5c9d845745cf
a5257eba54077ab5021166ac3753b7b823f363b602b1468c255b87ad09be0a780669ad39ebc7181cee5cd38de51e3661e3ed3223aa8d5a15b51db955f9ec12a1
4b6085f2012636676f3085441f0c7a2ae2e8771cb0b575524125b1c89e6699a16fc0cc6f0baa983e7b2eefa8a54f20284e59e44ed12f0b1a3e3ccd5b22202732
77f5245480399368a882635083251b35a5338b6f4f3d30abf4390fedfc8b8d9028fc0ddc84265fdd5af98e72193e4b1fccff66fc21489b96840e3391a19a837c
4f21d282db2cd129768744b9d713545923f363b602b1468c255b87ad09be0a780669ad39ebc7181cee5cd38de51e3661e3ed3223aa8d5a15b51db955f9ec12a1
bead309276a4702208eb135e841efad88318958aa75d45564651b4c215cbe2b1f448aa8b445158d3b0d130b91dfdd8608ee5eab1ce21437bf47f247360466560
ba06f018afbfd6c9dccedd2dd2cd0c6f4d8fe8239d3f40181b06a2901272b6831ed143820dbd899f76d603ab5eb6ee6510492f25caef92eb47a78586594d74ac
77f5245480399368a882635083251b356cee24a8250bba578d95be0fc5d68720bbf8579897ab330a4f21d282db2cd1296144480771ba7c9bd38aff4e12555a5d
327afc17e98f89c351e6de4fc7ee308ddb3788197f544adbc043d388afbb1cf1d2bbd7e847d638e1e776e9b255bda08cbfd81d659a09e4b30c138f656e983247
31bbfa71d5efb6fe825b843a3aa9ddcd6289fd182051766469f560e9d52aabdda4ebe83daa20e491ff9461dab3ee6fca6d250b1ba44e7f3f2c1d93ea4c78e59e
2fdec606fa8d14c72cd32d012c931e6140fc25baf84dde5f267e3b3c4bbb0ae6bf1ee911780421dddccedd2dd2cd0c6f4d8fe8239d3f4018d96174c800312a64
2fdec606fa8d14c7e9f25d288787a7522531ce9df5eb06033530366c610fc252644126c9831a96bd508d9c38a0fca4a4739d5590792af278a6bf26b871b1f73d
2fdec606fa8d14c79bb830afed5729415022d5b202d9f453f4390fedfc8b8d90eb759433eb62a72a1433cd3072c616f4bbf8579897ab330a8ef5297b3c22469b
8aedb3fe1d3b7bbf12452721a3a92c187acc38212145a4c6ec2cebdb02ab36758fd2acd21799881362b755e6ba5eaefdc7f6a8d7a54df5931af1fe4a342af836
77f52454803993689bb830afed572941740e8e74bd2df4afbbf8579897ab330a402cf9a5477936d333556ae0e6d84f2ad863a3a8e1352760c7627561b2651852
1edc64b3cd5eb33c6289fd182051766469f560e9d52aabdda4ebe83daa20e491ff9461dab3ee6fca6d250b1ba44e7f3f8d13230d4c21cde32feec3b9deec032d
4ba73c49c216144cbbf8579897ab330af7f9f0bd564011c9b41c954d8432707699461f50c3958630e4eedd2437bcf3a111132723a6b92dbf223c6cb74b24e4ed
2fdec606fa8d14c79bb830afed5729417060f80791dece47496ec68ce75a5eac7dfbe552aeb15ece9bb830afed572941ecfb656319b1eeed93c1765ffbcc90c5
ad311cbdf41d8fd299461f50c3958630e4eedd2437bcf3a111132723a6b92dbfab9d93b370d5415f743ad6b08f932588e06b80b52dccac3c0a0cc1d8316fe4c6
77f52454803993689bb830afed572941b899b7cdee1f7fb7a8ac504ab033e1fe1d802c801293cdd93f5e703a12881041fa92aa4fbec62332f83250de894f7ecd
2254ae57d4263ab72b3adeaa6c68cb8f99461f50c3958630e4eedd2437bcf3a111132723a6b92dbfab9d93b370d5415f743ad6b08f932588bf1583a3da30f12e
77f52454803993689bb830afed5729417e5ea9c582aef14c2e47b765f62e6928c0135e21edd1296a6119e73f230c37623802614343efaa54dd93131a7f339ae2
95d7fcca0b5012cc6289fd182051766469f560e9d52aabdda4ebe83daa20e491ff9461dab3ee6fca6d250b1ba44e7f3f8d13230d4c21cde32feec3b9deec032d
2fdec606fa8d14c79bb830afed5729415ffaa5d6bcb04dedf4390fedfc8b8d9028fc0ddc84265fddeb0577a25a1cb5641012295ea1b7e49148eba059086676e0
327afc17e98f89c33f5e703a12881041fa92aa4fbec62332e2ea8d5a73e9f3ba37f6d0376a8a7c0399461f50c3958630e4eedd2437bcf3a121c6834e3aa2ff38
77f52454803993689bb830afed572941222e1d6264ae8704f45310c19b6b8ee5bbf8579897ab330af7f9f0bd564011c9d135f1eab71083e00175a1487324b62f
b03201548283802023f363b602b1468c255b87ad09be0a780669ad39ebc7181cee5cd38de51e3661e3ed3223aa8d5a15b641642ad431572cf5b92b7dae350478

$CDNENCFINISH
.ENDS  UCC24650

****************************************************
.subckt PCD_U_wakeup_U_PCD_S9 1 2 3 4  
$CDNENCSTART
eee8c5c7a2bc4b01f045f303678664e7916da0bae22e8cb0bba041dd67c69ce448ea70148a9ac1670c8926c1ac5057c8ccfcd77bf87ca9dcabbffa8a45de9c8c
eb31820346c50528c0a7845ed2c86ea55e602d60608995c08fad96096cb9c247411eb75b34ba6edb28fc0ddc84265fddfb3ab56710398d2c48eba059086676e0
e42d54508fa9d0d55b6a43fe56a15e5404de7403da33775f2c15873cb32674862b8f139ee29f97f199461f50c3958630e4eedd2437bcf3a121c6834e3aa2ff38
1e7e75f62a07f7b1bbcb463bf6330e44bbf8579897ab330a6a24d83fbd5da531741d807b847f92f91c4c3528e3774420c5a62808153d1fd1e9b74dc3d32c5d18
7354b51ad144e4845fe9ab614b8532c623f363b602b1468c255b87ad09be0a780669ad39ebc7181cee5cd38de51e3661e3ed3223aa8d5a15b51db955f9ec12a1
$CDNENCFINISH
.ends PCD_U_wakeup_U_PCD_S9

.subckt TRD_U_wakeup_U_TRD_S12 1 2 3 4  
$CDNENCSTART
eee8c5c7a2bc4b01f045f303678664e7916da0bae22e8cb0bba041dd67c69ce448ea70148a9ac1670c8926c1ac5057c8ccfcd77bf87ca9dcabbffa8a45de9c8c
eb31820346c50528c556005f2d142fa58d5fa42b92e54aec31820e631d1d1d7421f30274f7922a9b18ce2e01e09fd061470d4b85f46e0474d38aff4e12555a5d
e42d54508fa9d0d5873a567466b29d046db46a77e20d94b76f31076d2b37e96baa35006d782c6ce96289fd182051766469f560e9d52aabddb7a43760927d6c9b
1e7e75f62a07f7b1bbcb463bf6330e44bbf8579897ab330a9576c8371a496be87d007ede7b16ab3d0ffb76e2ddf4497ba7a7af11592fef70129df5d69757de03
69de61d242c6dff623f363b602b1468c255b87ad09be0a780669ad39ebc7181cee5cd38de51e3661e3ed3223aa8d5a15b641642ad431572cf5b92b7dae350478
d4f4a138884f2d4b3dd9b8f19e12898a99461f50c3958630e4eedd2437bcf3a111132723a6b92dbfab9d93b370d5415f743ad6b08f932588bf1583a3da30f12e
$CDNENCFINISH
.ends TRD_U_wakeup_U_TRD_S12

.subckt TRD_U_wakeup_U_TRD_S9 1 2 3 4  
$CDNENCSTART
eee8c5c7a2bc4b01f045f303678664e7916da0bae22e8cb0bba041dd67c69ce448ea70148a9ac1670c8926c1ac5057c8ccfcd77bf87ca9dcabbffa8a45de9c8c
eb31820346c50528c556005f2d142fa55e602d60608995c08fad96096cb9c247411eb75b34ba6edb28fc0ddc84265fddedd05bcb10872f5148eba059086676e0
e42d54508fa9d0d5873a567466b29d0404de7403da33775f2c15873cb32674862b8f139ee29f97f199461f50c3958630e4eedd2437bcf3a121c6834e3aa2ff38
1e7e75f62a07f7b1bbcb463bf6330e44bbf8579897ab330a9576c8371a496be8741d807b847f92f91c4c3528e3774420c5a62808153d1fd1e9b74dc3d32c5d18
17c873e3b980b19f0c0682d8f72d2e0123f363b602b1468c255b87ad09be0a780669ad39ebc7181cee5cd38de51e3661e3ed3223aa8d5a15b51db955f9ec12a1
$CDNENCFINISH
.ends TRD_U_wakeup_U_TRD_S9

.subckt PWRM_U_wakeup_U_PWR_F1 1 2 3 4  
$CDNENCSTART
eee8c5c7a2bc4b01f045f303678664e7916da0bae22e8cb0bba041dd67c69ce448ea70148a9ac1670c8926c1ac5057c8ccfcd77bf87ca9dcabbffa8a45de9c8c
863561dc39f57f9ca882635083251b35bea3f6a4884c0f918fad96096cb9c247362a2fcceb9bf32751e6de4fc7ee308d1fc93eab35d84e9548eba059086676e0
362a2fcceb9bf32751e6de4fc7ee308dff2df031751f108e2c15873cb32674866e4db311996cb38499461f50c3958630e4eedd2437bcf3a121c6834e3aa2ff38
$CDNENCFINISH
.ends PWRM_U_wakeup_U_PWR_F1

.subckt HVSW_U_wakeup_U_HVSW_S7 1 2 3 4  
$CDNENCSTART
eee8c5c7a2bc4b01f045f303678664e7916da0bae22e8cb0bba041dd67c69ce448ea70148a9ac1670c8926c1ac5057c8ccfcd77bf87ca9dcabbffa8a45de9c8c
eb31820346c505289bb830afed572941740e8e74bd2df4af31820e631d1d1d7421f30274f7922a9b18ce2e01e09fd061347f6f109f3c07b6d38aff4e12555a5d
e42d54508fa9d0d53f5e703a128810413c706a219fe8b62f6f31076d2b37e96baa35006d782c6ce96289fd182051766469f560e9d52aabddb7a43760927d6c9b
1e7e75f62a07f7b1bbcb463bf6330e44bbf8579897ab330af7f9f0bd564011c9b8257e7c370c44b80ffb76e2ddf4497ba7a7af11592fef70f48ab23162d78bc2
a7aef30fa0a089cb9a87dce6f28c1cab508d9c38a0fca4a4739d5590792af278da14e00f6f5ae8a8d11e18ad2690f4573f8605f6fa7919557d501c4fac310b0e
d4f4a138884f2d4b3dd9b8f19e12898a99461f50c3958630e4eedd2437bcf3a111132723a6b92dbfab9d93b370d5415f743ad6b08f932588bf1583a3da30f12e
$CDNENCFINISH
.ends HVSW_U_wakeup_U_HVSW_S7


** Wrapper definitions for AA legacy support **

.subckt one_shot in out

+ params: t=100
$CDNENCSTART
eee8c5c7a2bc4b01f045f303678664e7916da0bae22e8cb0bba041dd67c69ce448ea70148a9ac1670c8926c1ac5057c8ccfcd77bf87ca9dcabbffa8a45de9c8c
edc6c3b3995817705a00c52b68704f0f8b3f76aaa0e3fe9f51e71b336f318a9d92ae92e5259df45eb79190594afbaf5c86a0c0cfb5146eb60785df26527e755a
f5b25dfb2887343b03c07542fb60344dd9e890c98d181fb809dd5450f7fcc3517b6e8bdd4e1141103b3b32d2cefa9959c687c2e90b8d137479dce86c51732831
186bf6a76a18dcbed19d2ab4739b2dd62464d88e9dd7aa77e2e8771cb0b575524125b1c89e6699a16fc0cc6f0baa983e7b2eefa8a54f2028816e33b34bf68701