* PSpice Model Editor - Version 17.4.0

*$
.model Qbreakp PNP
*$
