Version 4
SHEET 1 1108 680
WIRE 656 -128 464 -128
WIRE 976 -128 720 -128
WIRE 640 -64 544 -64
WIRE 544 -16 544 -64
WIRE 640 80 640 16
WIRE 256 96 48 96
WIRE 464 96 464 -128
WIRE 464 96 320 96
WIRE 608 96 464 96
WIRE 864 112 688 112
WIRE 976 112 976 -128
WIRE 976 112 928 112
WIRE 1104 112 976 112
WIRE 608 144 480 144
WIRE 48 160 48 96
WIRE 480 288 480 144
WIRE 640 288 640 160
WIRE 48 320 48 240
WIRE 976 352 976 112
WIRE 640 432 640 368
WIRE 976 464 976 416
FLAG 48 320 0
FLAG 480 288 0
FLAG 640 432 0
FLAG 544 -16 0
FLAG 976 464 0
SYMBOL voltage 48 144 R0
WINDOW 123 24 124 Left 2
WINDOW 39 0 0 Left 0
SYMATTR Value2 AC 1 0
SYMATTR InstName V1
SYMATTR Value SINE(0 4 50 0 0 0)
SYMBOL res2 320 80 R90
WINDOW 0 0 32 VBottom 2
WINDOW 3 32 32 VTop 2
SYMATTR InstName R1
SYMATTR Value 1.8k
SYMBOL res2 720 -144 R90
WINDOW 0 0 32 VBottom 2
WINDOW 3 32 32 VTop 2
SYMATTR InstName R2
SYMATTR Value 1.50k
SYMBOL cap 960 352 R0
SYMATTR InstName C1
SYMATTR Value 47µ
SYMBOL Misc\\battery 640 272 R0
WINDOW 123 0 0 Left 0
WINDOW 39 0 0 Left 0
SYMATTR InstName V2
SYMATTR Value 15
SYMBOL Misc\\battery 640 -80 R0
WINDOW 123 0 0 Left 0
WINDOW 39 0 0 Left 0
SYMATTR InstName V3
SYMATTR Value 15
SYMBOL diode 864 128 R270
WINDOW 0 32 32 VTop 2
WINDOW 3 0 32 VBottom 2
SYMATTR InstName D1
SYMATTR Value 1N4148
SYMBOL TL07ID 512 128 R0
SYMATTR InstName U1
TEXT 16 488 Left 2 !.tran 100ms
TEXT 368 576 Left 2 !.include 1N4148.mod
TEXT 792 600 Left 2 !.include TL07ID.sub
