.MODEL BZX79-C3V3 D (
+   IS =  1.001e-09
+   RS =  0.3552
+   CJO =  1e-12
+   VJ =  0.75
+   TT =  5e-09
+   M =  0.3333
+   BV =  3.3
+   IBV =  0.005
+   N =  1.11
+   EG = 1.11
+   XTI =  3
+   KF = 0
+   AF= 1
+   FC =  0.06118
+   TNOM =  27
+ )
