.MODEL 1N4148  D(Is=0.1p Rs=1.6 CJO=2p Tt=12n Bv=100 Ibv=0.1p)
