**$ENCRYPTED_LIB
**$INTERFACE
* source UCC28730
*
*
*****************************************************************************
* (C) Copyright 2016 Texas Instruments Incorporated. All rights reserved.                                            
*****************************************************************************
** This model is designed as an aid for customers of Texas Instruments.                                             
** TI and its licensors and suppliers make no warranties, either expressed                                           
** or implied, with respect to this model, including the warranties of                                                    
** merchantability or fitness for a particular purpose. The model is                                                      
** provided solely on an "as is" basis. The entire risk as to its quality                                                    
** and performance is with the customer.                                                                                         
*****************************************************************************
*
* Released by: WEBENCH Design Center, Texas Instruments Inc.
* Part: UCC28730
* Date: 1/6/2016
* Model Type: Transient 
* Simulator:  PSPICE
* Simulator Version: 16.2
* EVM Order Number: UCC28730EVM-552
* EVM Users Guide: 
* Datasheet: SLUSBL5 FEBRUARY 2015
* Model Version: Final 1.0
* Release to Web.
****************************************************************************
*Note: The CBC funcrion is NOT modeled and thus this node is internally grounded.
***************************************************************************** 
*$
.subckt UCC28730_netlist CS HV VS CBC VDD DRV GND
$CDNENCSTART
eee8c5c7a2bc4b01f045f303678664e7916da0bae22e8cb0bba041dd67c69ce448ea70148a9ac1670c8926c1ac5057c8ccfcd77bf87ca9dc4985777ec81e872e
e28924038cc409e4e1a9ec9afba2fd96af0e804c85ed032022dd6f388992d6b0082c03a31e828457768b799a931e0acda98dc1102a6f9eb9d0c7014e4b3060b6
c58028fccdd3036fd3d1fa6dfa053ed9af0e804c85ed032022dd6f388992d6b022b6d797d7e8198200779d33eea99e3b32a80724d0ec2bd4eb7de9135ec5cd2a
22dd6f388992d6b000ad8a1d34645aee9aacae35e521587a0d0beb89c00d7d5782ebdcbe25b3c5a0c4819ece1c9d3c2bed1efe3fc20d237553769a21d78ba437
3eda7e7046358aaf75963efd3ee34e16b0320154828380204e26894942562954f47a15dc89514f6dad0b6fb86357180409f392a0688e506cc14dbf6bdb128101
c58028fccdd3036f95072a0804cd8826af0e804c85ed032022dd6f388992d6b0ee3573742ec03ffde95468e99a89f1d632a80724d0ec2bd414dfdf160856d6dd
6af9d5413214ba98502f880bef78c1055d82f9cf2629ca909449d8ac150f666b575f10f7b1a1bbea09a56f0943cb0fd264d11f87ef5e712eef3854b82a896c3f
cdaa385411811e27bfd81d659a09e4b32637e9cac2aa5ceafd49a287c76beca9cf3db11be0503885b874a940c8205fc6b8b9eee94e5ee66ce6718551570c0be6
c58028fccdd3036f921740558317fa61957673035b26e32b257f2bdfae26de4932a80724d0ec2bd40b94221a10c701992eef843ca2dac478e156e7824950e356
2dad6e18aa8a06a275963efd3ee34e166bf55428c35ad9f81042826a84203a90dd5402b0706abd10d8de1fde589b278e47cfac0dd656a0b1253a5dd8fcc2b899
cdaa385411811e27bfd81d659a09e4b32637e9cac2aa5cea2cecad1ebf804c4bf467148f06ca8e43a57bb87580e4fabd0501b7a2929c29f6f5c25e441b5114b6
c58028fccdd3036fed4f72465a50d4bfaf0e804c85ed032022dd6f388992d6b022b6d797d7e8198200779d33eea99e3b32a80724d0ec2bd4186bf6b6d3bf5f28
22dd6f388992d6b091248f21199ecc43c7541ec212b258010d0beb89c00d7d5782ebdcbe25b3c5a0c4819ece1c9d3c2bed1efe3fc20d237553769a21d78ba437
3eda7e7046358aaf75963efd3ee34e16b0320154828380204e26894942562954f47a15dc89514f6dad0b6fb86357180409f392a0688e506cc14dbf6bdb128101
c58028fccdd3036f76d1210d0658b1ea427db36849cad52632a80724d0ec2bd47e240220279a590122dd6f388992d6b080d35fe687ca697c21a30b3500964a3f
58ae2e23ef9fb3078e5f329c2cc6efbc8c73722e5844fe6d994e43014231e3b0948dd59b71fea82f3b4054b668553d2dbd9b11b4426a3f1a2ada8602f1b4419c
c58028fccdd3036f54b1fd74dfd5e159af0e804c85ed032022dd6f388992d6b0a28d62f4a52967e49c4feaa9f2fd42df32a80724d0ec2bd4ee0381a9496cd049
22dd6f388992d6b0564d5a88acf37c81e847dda77d5f94430d0beb89c00d7d5782ebdcbe25b3c5a0c4819ece1c9d3c2bed1efe3fc20d237553769a21d78ba437
a8781af426627ebb8dcea2cdd2d3d5cc9783ae8e4821c68f44286f328a01b5597353264ebf8b05513267e49cc155bb17aad0cae5ebf3019a4e6664a44bdc0538
c58028fccdd3036fa558d1722659dd26af0e804c85ed032014e38a20abbe3091ac5215c78f241c4332a80724d0ec2bd485b3519aa6fcdcd6271d737d08fe9fd1
de8fa774e8771096e847dda77d5f94430d0beb89c00d7d5782ebdcbe25b3c5a0c4819ece1c9d3c2bed1efe3fc20d2375e00b27168b25fa884aeece00d8776ee5
3eda7e7046358aaf75963efd3ee34e16b0320154828380204e26894942562954f47a15dc89514f6dad0b6fb86357180409f392a0688e506cc14dbf6bdb128101
2cb8f1711b5ef8bf4da536fbb57430b5f45310c19b6b8ee562016e5d8a583c2ef850afcea49097653363820ea5be287db141b85c10822a581c022559c34d47a8
c58028fccdd3036f1ec807be8e83fbb2af0e804c85ed032022dd6f388992d6b0a28d62f4a52967e49c4feaa9f2fd42df32a80724d0ec2bd4870c9d409eb0e3fd
2254ae57d4263ab72b3adeaa6c68cb8f2c396375bc586770da6db763bf02499cae507e0431e942c1d56bdc167827a12972350787b9f6338d37ec585c63ac60f2
c58028fccdd3036f3c3a5b1d62ef7a21af0e804c85ed032022dd6f388992d6b0291aade3c5c0b8629c4feaa9f2fd42df32a80724d0ec2bd4beabd88666eb0eae
26a76a703348beef768b799a931e0acda98dc1102a6f9eb9a7314a2ac3be50a10f70b39ab0a118e4a7769828c7529932996bcf998245fcff8c49116765d49071
3eda7e7046358aaf75963efd3ee34e16b0320154828380204e26894942562954f47a15dc89514f6dad0b6fb86357180409f392a0688e506cc14dbf6bdb128101
c58028fccdd3036f9fde963f953dc390957673035b26e32b257f2bdfae26de4932a80724d0ec2bd4106ff32b7636a9462eef843ca2dac47854df7c9d8ad8cafa
767b53e5aaaa7a3675963efd3ee34e166bf55428c35ad9f81042826a84203a90dd5402b0706abd10d8de1fde589b278e47cfac0dd656a0b1253a5dd8fcc2b899
cdaa385411811e27bfd81d659a09e4b32637e9cac2aa5cea2cecad1ebf804c4bf467148f06ca8e43a57bb87580e4fabd0501b7a2929c29f6f5c25e441b5114b6
c58028fccdd3036fcaa6cc2fbc622512af0e804c85ed032022dd6f388992d6b054bd8a49f48296766ec7758c5aab74db708f001a4912ac26292eeaf6fa3e6758
2cf21e49bb1228326bf55428c35ad9f81042826a84203a90dd5402b0706abd10d8de1fde589b278e47cfac0dd656a0b1d4954f86af8f723ae64ea8b82bcdfd68
1a699aef87c016c46be40df91e722b6522dd6f388992d6b04b5242f79e9bd2fd02836aa216e5a931ffee7b03febebf758318958aa75d4556dd0a70f33e2447ea
4e2689494256295447158635b18b66595d82f9cf2629ca909449d8ac150f666b575f10f7b1a1bbea09a56f0943cb0fd264d11f87ef5e712eef3854b82a896c3f
4b6085f2012636675a0aa31c52cddba976617f42cd5d956b0d0beb89c00d7d5782ebdcbe25b3c5a0c4819ece1c9d3c2bed1efe3fc20d237553769a21d78ba437
e28924038cc409e4320ded2b4259647baf0e804c85ed032022dd6f388992d6b0ad2e22b4c963449afd3ca8a5bf3f61636bf55428c35ad9f8b192f560d9f4983f
7b4812d77edda49d605133c0ef8662048dc6150e9752de328a157c7780304a24451f9123ffb784be30c1f3d88c8c69b0faeaa281e22d723e9d6bedf9d0034ac8
7b4812d77edda49dc31caaf6be6587f78dc6150e9752de328a157c7780304a2426bf8520a6c97329cd8a3ef21533b299faeaa281e22d723e9d6bedf9d0034ac8
c58028fccdd3036f484f838e0676988f8a157c7780304a24451f9123ffb784bea0c8c19972ec2e8b850461d50f542db663705f23d6bbbf353b74d82b30a873c9
ffe80b6455c91187a186560b010a67b1b874a940c8205fc6b8b9eee94e5ee66c7aa3474ace3418a4110e94ff7a3589bca41a7cab6b87d7545d2916c71a18d47c
e28924038cc409e42974b94c86d1e996af0e804c85ed032022dd6f388992d6b00b96c93abc3c4529c4a117156be44fa5b874a940c8205fc6ca6b9c5975f14691
c58028fccdd3036fb8401e40b59724c971a38a83b258c405148cc69943a800cad99e08390dd1dc5562016e5d8a583c2e0cbd4fe610679da6a4bc7ea972829f96
5314e44f8dbca9aaf60ecfe3dff4fab22c396375bc586770da6db763bf02499cae507e0431e942c1d56bdc167827a12972350787b9f6338d37ec585c63ac60f2
cdaa385411811e27bfd81d659a09e4b32637e9cac2aa5ceafd49a287c76beca9cf3db11be0503885b874a940c8205fc6b8b9eee94e5ee66ce6718551570c0be6
c58028fccdd3036f76d12e368ccd9f6eaf0e804c85ed032022dd6f388992d6b0291aade3c5c0b862265f3c2d407f1719ee799b2bc185dbe7292eeaf6fa3e6758
c3633a7d320ded726bf55428c35ad9f81042826a84203a90dd5402b0706abd10d8de1fde589b278e47cfac0dd656a0b1d4954f86af8f723ae64ea8b82bcdfd68
1a699aef87c016c46be40df91e722b6522dd6f388992d6b0e0337490827caeef81d6692fa3c14ff6ffee7b03febebf758318958aa75d4556dd0a70f33e2447ea
4e2689494256295447158635b18b66595d82f9cf2629ca909449d8ac150f666b575f10f7b1a1bbea09a56f0943cb0fd264d11f87ef5e712eef3854b82a896c3f
4b6085f2012636675a0aa31c52cddba976617f42cd5d956b0d0beb89c00d7d5782ebdcbe25b3c5a0c4819ece1c9d3c2bed1efe3fc20d237553769a21d78ba437
c58028fccdd3036f7b80ba6bcef68a8eaf0e804c85ed032022dd6f388992d6b0564d5a88acf37c81ac5215c78f241c4332a80724d0ec2bd46f3b607d1e804f38
14e38a20abbe3091e847dda77d5f94430d0beb89c00d7d5782ebdcbe25b3c5a0c4819ece1c9d3c2bed1efe3fc20d2375e00b27168b25fa884aeece00d8776ee5
1a699aef87c016c4d52ba00f2da895d49ab7baf541c5c02c456676176791578bd2bbd7e847d638e1e776e9b255bda08cbfd81d659a09e4b30c138f656e983247
31bbfa71d5efb6fe825b843a3aa9ddcd5d82f9cf2629ca909449d8ac150f666b575f10f7b1a1bbea09a56f0943cb0fd264d11f87ef5e712eef3854b82a896c3f
c58028fccdd3036f7040480c47bcade8af0e804c85ed032022dd6f388992d6b080d35fe687ca697c7699b13db169cac832a80724d0ec2bd45847cb27ec26161d
22dd6f388992d6b03b985c1600bd801b9aacae35e521587a0d0beb89c00d7d5782ebdcbe25b3c5a0c4819ece1c9d3c2bed1efe3fc20d237553769a21d78ba437
a8781af426627ebb8dcea2cdd2d3d5cc9783ae8e4821c68f44286f328a01b5597353264ebf8b05513267e49cc155bb17aad0cae5ebf3019a4e6664a44bdc0538
e28924038cc409e4e2ce840b865d99f5af0e804c85ed032022dd6f388992d6b0f1afb465efb9196d6881452b9dd0d78eb874a940c8205fc6ca6b9c5975f14691
e28924038cc409e41c28dc5ad085bd9eaf0e804c85ed032022dd6f388992d6b0d609f3499fec74881a4d5c267585c4d5b874a940c8205fc6ca6b9c5975f14691
c58028fccdd3036f168f3542b94ef0ddaf0e804c85ed032022dd6f388992d6b0efe828c9f2e7ed307699b13db169cac832a80724d0ec2bd4f435ec8ff62276e1
22dd6f388992d6b09429864a07ce43e3aad0cae5ebf3019a0d0beb89c00d7d5782ebdcbe25b3c5a0c4819ece1c9d3c2bed1efe3fc20d237553769a21d78ba437
3eda7e7046358aaf75963efd3ee34e16b0320154828380204e26894942562954f47a15dc89514f6dad0b6fb86357180409f392a0688e506cc14dbf6bdb128101
c58028fccdd3036fee8f09cb917f0833af0e804c85ed032022dd6f388992d6b080d35fe687ca697c7699b13db169cac832a80724d0ec2bd44f8043d0e7bf2a7d
2254ae57d4263ab72b3adeaa6c68cb8f2c396375bc586770da6db763bf02499cae507e0431e942c1d56bdc167827a12972350787b9f6338d37ec585c63ac60f2
2cb8f1711b5ef8bf9c962d4aa267fd86f45310c19b6b8ee562016e5d8a583c2e65593d04f0d5bcad6a9c27edca5911f0b141b85c10822a581c022559c34d47a8
c58028fccdd3036f5a9e23f948958058af0e804c85ed032022dd6f388992d6b03b985c1600bd801b6d3e42c40be7037b32a80724d0ec2bd46f3b607d1e804f38
22dd6f388992d6b0efe828c9f2e7ed30aad0cae5ebf3019a0d0beb89c00d7d5782ebdcbe25b3c5a0c4819ece1c9d3c2bed1efe3fc20d237553769a21d78ba437
1a699aef87c016c4d52ba00f2da895d45e632f7b69311993456676176791578bd2bbd7e847d638e1e776e9b255bda08cbfd81d659a09e4b30c138f656e983247
31bbfa71d5efb6fe825b843a3aa9ddcd5d82f9cf2629ca909449d8ac150f666b575f10f7b1a1bbea09a56f0943cb0fd264d11f87ef5e712eef3854b82a896c3f
befc80af0cdb221df04808c3b5fce37116748d70f8ce0ce29b4f3a3738a89f733a6a4bab138a026081ab786053c013a44285dbefe3a8fab436b44f30cb346720
5ad79aa79b967e59706b807646b8037124aa463cac8e7483ecb9d5a9a24ee4690d6ef18965197e4324fdfd9bb2e10b072c396375bc586770d75fe8a57b972f70
80b5fda8ff9d3f4e706b807646b8037159037dc4a6b77c30499f3ca460df6c60a41ccc339e6bc3893c991a04052eba44644126c9831a96bd4e6664a44bdc0538
ea978f9dc54f31d7706b807646b80371161408c1a84238f859037dc4a6b77c309918a768ec14c892213ca5026355ec4ec3ac29cd9b2a8f47f067b5ef05034cf8
2a2c61da47032b48808f3d990f74fd136eabb1a0850e3bb50d0beb89c00d7d5782ebdcbe25b3c5a0c4819ece1c9d3c2bed1efe3fc20d237553769a21d78ba437
14f5d5675cdce22295fe7ef81b650ef06964572ba7157b55480be8c055847acd53ee5e78f0b4e1653f7b9039ffe8e635b874a940c8205fc6ca6b9c5975f14691
cf5f80603b0a7ca2706b807646b80371e069febf684fad824d2f23a30635e436a57bb87580e4fabd0501b7a2929c29f661c01a05a37c2b913191e8863bbde404
65f92ffd62080ac0706b807646b80371b4d62e2a98d5514857e2c5aa80851370a57bb87580e4fabd0501b7a2929c29f661c01a05a37c2b913191e8863bbde404
90f5765bbf097c96706b807646b803716e6f5b095c55af2f521d3f047222fceb56d1f719449b50b83409d91bb56645c2185fec89c9ff42349bef975369f3b131
33cd7a615413a925a2482fbd1ee47cacb874a940c8205fc6b8b9eee94e5ee66c7aa3474ace3418a4110e94ff7a3589bca41a7cab6b87d7545d2916c71a18d47c
d68c0fe68ee42b95bfd30eab6b1bc1ba220fdddccfacf55a44b32fefe4d720cbd680c00c81c9fe51e8abcbe16b817a691d4917a10ccfafe75b7c279fcc12cf5d
2714c658e964173d8c73722e5844fe6d994e43014231e3b0948dd59b71fea82f3b4054b668553d2dbd9b11b4426a3f1ad9aa5e45e9a37d5e411329eecc69143a
14f5d5675cdce22295fe7ef81b650ef02aaf298dc53f0a59588144d806c6ec8901189f7cba072ce7010d605e888c8df901a6d8ba5fdec5bc1c022559c34d47a8
f57b0f2f4f3d276e706b807646b80371ba8822c225779eeb350a08958ac0e31126d14ffdaa443c3a3c991a04052eba44644126c9831a96bd4e6664a44bdc0538
1632a67cf5c03a1a706b807646b8037166cdba84bdbbb8e7ea6b98386fc5148ac969d7ebc2b055302c396375bc586770da6db763bf02499c5899f8ea17b0132c
928d7a9f462cf2ed706b807646b803719b27364e59cc4c3fd9a0281a37c483987d693d5d8a6f52e6442d3169d37180c73d4e8fec9228a10a9bef975369f3b131
899a9c53d687d03e768b799a931e0acda98dc1102a6f9eb9a7314a2ac3be50a10f70b39ab0a118e4a7769828c7529932996bcf998245fcff8c49116765d49071
9d1a9adbadf73895b6798d0343052a8508f420c031ece324a687c6185a782f90f03d00c3183fd2c708f420c031ece324788c54c6c4c63a5cc97e56ae2e2bfe16
97ef8fd72cc1ec3b768b799a931e0acda98dc1102a6f9eb9a7314a2ac3be50a10f70b39ab0a118e4a7769828c7529932996bcf998245fcff8c49116765d49071
005730116bddfb19608e377049e162c16344e9a4706535715d82f9cf2629ca909449d8ac150f666b575f10f7b1a1bbea09a56f0943cb0fd2e705560db9664469
7b06e749c0300a77f1a20046f7cfb131af0e804c85ed0320e9690f81916fbad94b87575ce748209b23a1a6c7e118b48fd7342718e88c170ee89729e5d38ef58f
7b06e749c0300a77a3e243750156b065af0e804c85ed0320e9690f81916fbad9e0c77084547d0d79f3baee6148c9bbc35b36dad70a573f890fc9392fce88c8c9
62d766f77596a54b8c73722e5844fe6d994e43014231e3b0948dd59b71fea82f3b4054b668553d2dbd9b11b4426a3f1ad9aa5e45e9a37d5e411329eecc69143a
7b06e749c0300a77008e283b18a103adaf0e804c85ed03201c33ed65dff73fa9efc2e46b209a3fca04e1d099fb0d076050932f91c29cb99babb485c8ac7a39ac
bde2944866f132400e99d9c87cc79cb9f45310c19b6b8ee5ae8fc8708f045c62f618abeb8f40b31e710f626c2faf14a6a57bb87580e4fabdb532d5716952a72d
7b06e749c0300a7759c6fe88592d7b618dc6150e9752de32bbaa1bdcbfe2ecff196cc142aed1488ecaf509dd5b143a6962d766f77596a54b1c022559c34d47a8
7b06e749c0300a77e118f94ddbc322aaaf0e804c85ed0320e9690f81916fbad97a269030ce321accb862eff58fa286a150932f91c29cb99babb485c8ac7a39ac
7b06e749c0300a778e7aa902707dd39baf0e804c85ed0320e9690f81916fbad971d3d07802a2b6bff3baee6148c9bbc35d2fb7923c7af0070fc9392fce88c8c9
62d766f77596a54b8c73722e5844fe6d994e43014231e3b0948dd59b71fea82f3b4054b668553d2dbd9b11b4426a3f1ad9aa5e45e9a37d5e411329eecc69143a
be17d341d85dd035706b807646b803712bcfdd581db38c8841bf4bedf976d76b3fc19c30e3c3d42623b782b3d6a37df1768b799a931e0acdcf9deae5990124a4
a7016332727eeac3706b807646b8037118ad97e111fd1bbba2d6c29b9dfb4da8042f0c0c78bb0debb874a940c8205fc6b8b9eee94e5ee66ce6718551570c0be6
cfa1abb0abebaedf706b807646b803719b27364e59cc4c3fd765c245ee7e6ddf047f6122cda816dcbfbdb3e6924db51b75963efd3ee34e160ff63032dc4e41c4
bfd81d659a09e4b3d24b51ea77d68888768b799a931e0acda98dc1102a6f9eb9a7314a2ac3be50a10f70b39ab0a118e4a7769828c7529932143ffec2441cadca
4b6085f2012636675a0aa31c52cddba976617f42cd5d956b0d0beb89c00d7d5782ebdcbe25b3c5a0c4819ece1c9d3c2bed1efe3fc20d237553769a21d78ba437
ff9b7c892d33d671706b807646b803717585899c89d0dc1df20e934fcb75a43c574f10c5e47d61c17e5c9e22aca3a28424fdfd9bb2e10b07c14dbf6bdb128101
afb57ee19c9d50ea706b807646b8037175407071a97735c59af4749646d16647ef5d5bb81f367629b2e307786d82fdce9f5b02121a88b104a1fd36a81778a4af
bd05f58b97f9b5b2e847dda77d5f94430d0beb89c00d7d5782ebdcbe25b3c5a0c4819ece1c9d3c2bed1efe3fc20d2375e00b27168b25fa884aeece00d8776ee5
5adfc88c320b98c0e7926cbac1c725c5ea230479a442e8bf7607684c84d85188fe95918ffd68f7d633a78468d0715b5bc890324ab5b2d739c48f4a61038670d4
08f420c031ece3240401ba1628b4c4cb8e86c733af4720b6a57bb87580e4fabd0501b7a2929c29f661c01a05a37c2b9114bedc8c1ce83ef4adc370afc889dfa1
9d1a9adbadf73895c1696f21b2556b1e8b6059bfebf95a6c08f420c031ece3240f8d5a0b869c646945007abd6963530db319abf4c9a8d4a7806efaaeb2b49e85
88302cdfcbbf780ce4979c38944c93175d82f9cf2629ca909449d8ac150f666b575f10f7b1a1bbea09a56f0943cb0fd264d11f87ef5e712eef3854b82a896c3f
14f5d5675cdce22295fe7ef81b650ef0f0f560260e184463f6386c50654794d457b615bb5093a871768b799a931e0acda98dc1102a6f9eb9d0c7014e4b3060b6
728391d0344b367e706b807646b8037181a3d69985260447d0dfb1ffaf489067042f0c0c78bb0debb874a940c8205fc6b8b9eee94e5ee66ce6718551570c0be6
e11f20ad36e7e098706b807646b80371caf8c955605ab3b41b1fa075b864fc8bf8d3be278cfcb36fb874a940c8205fc6b8b9eee94e5ee66ce6718551570c0be6
fe9e6b26c66a2648706b807646b8037175407071a97735c59af4749646d16647dee2239f17e4ea67bce6e37047ad7ed4ea230479a442e8bf3ecdbe9e3e7cd210
06fb15bde945542248b4946973548ea68c73722e5844fe6d994e43014231e3b0948dd59b71fea82f3b4054b668553d2dbd9b11b4426a3f1a2ada8602f1b4419c
8135d6668bb926e641adb42f60024d2694b668b3b8da940d453cf6581907553b0cb5a4f707792223d98af35360f7b3bf90a36ca1cf15318b7bb040b0e714d654
6c5b9b31d7302cc050e01df29af4642cb874a940c8205fc6b8b9eee94e5ee66c7aa3474ace3418a4110e94ff7a3589bca41a7cab6b87d7545d2916c71a18d47c
5adfc88c320b98c01b8582d99a2553f55da4be91cf63a16e57b615bb5093a871768b799a931e0acda98dc1102a6f9eb9a7314a2ac3be50a1823ed9ded193640f
6f4e565be44828cf706b807646b80371f7b2ae2b250cb2b3583e6f26ddd635752b785fd33e75fcf075963efd3ee34e16b032015482838020199902ef25e0ffab
d24b51ea77d68888768b799a931e0acda98dc1102a6f9eb9a7314a2ac3be50a10f70b39ab0a118e4a7769828c7529932996bcf998245fcff8c49116765d49071
4b6085f2012636675a0aa31c52cddba976617f42cd5d956b0d0beb89c00d7d5782ebdcbe25b3c5a0c4819ece1c9d3c2bed1efe3fc20d237553769a21d78ba437
d6aca196616365d3706b807646b803714df2a3d4f2e5e283c57e0ea949cb1c68c969d7ebc2b055302c396375bc586770da6db763bf02499c5899f8ea17b0132c
92491360359d2ac4706b807646b80371adef6467d751de20ed7221dc9de12bc3c969d7ebc2b055302c396375bc586770da6db763bf02499c5899f8ea17b0132c
$CDNENCFINISH
.ends UCC28730_netlist
*$
.subckt WUM_U2_U_WUM_S10 1 2 3 4  
$CDNENCSTART
eee8c5c7a2bc4b01f045f303678664e7916da0bae22e8cb0bba041dd67c69ce448ea70148a9ac1670c8926c1ac5057c8ccfcd77bf87ca9dc4985777ec81e872e
c2fe1edd8025268076d1210d0658b1ea9ebea82edad95075c43725c3f081304962016e5d8a583c2e943fe2af15073a965d82f9cf2629ca903b6acdccc776ede8
621bda3d1cdfae9c0353d3bc8eb4371e706b807646b80371def2f2439c960937768b799a931e0acda98dc1102a6f9eb9a7314a2ac3be50a1823ed9ded193640f
1e7e75f62a07f7b1bbcb463bf6330e4462016e5d8a583c2e15be9c412df49597e1b4336891c54744ecde809462a86a6da5f5fbdd20c6741f9adc56f03a8d243c
8797abf02fb63529a857e0c50156fae12c396375bc586770da6db763bf02499cae507e0431e942c1d56bdc167827a12972350787b9f6338d37ec585c63ac60f2
$CDNENCFINISH
.ends WUM_U2_U_WUM_S10
*$
.subckt WUM_U2_U_WUM_S9 1 2 3 4  
$CDNENCSTART
eee8c5c7a2bc4b01f045f303678664e7916da0bae22e8cb0bba041dd67c69ce448ea70148a9ac1670c8926c1ac5057c8ccfcd77bf87ca9dc4985777ec81e872e
c2fe1edd80252680484f838e0676988f46b92e86e8aaa0ba4efe6329ceb8966322dd6f388992d6b05b1e171f3f707b43a57bb87580e4fabdb532d5716952a72d
621bda3d1cdfae9c3f4a79a00dd5586c1852d2bae25628728884162488a37977b874a940c8205fc6b8b9eee94e5ee66c7aa3474ace3418a4c240d66d64eb0ead
1e7e75f62a07f7b1bbcb463bf6330e4462016e5d8a583c2e30fd5695ce173411e75adc0303e81669db74486a9068fdbbaf673fe4a4241386ac417d4006098b65
62942367648f89e870238d140ebbba1ca57bb87580e4fabd0501b7a2929c29f661c01a05a37c2b9114bedc8c1ce83ef4a0bc1f02c27b217bf76d3d0c466b4521
$CDNENCFINISH
.ends WUM_U2_U_WUM_S9
*$
.subckt TOP_UCC28730_netlist_U2_S1 1 2 3 4  
$CDNENCSTART
eee8c5c7a2bc4b01f045f303678664e7916da0bae22e8cb0bba041dd67c69ce448ea70148a9ac1670c8926c1ac5057c8ccfcd77bf87ca9dc4985777ec81e872e
6fc1766827e17070706b807646b803714f11897f11707f104989babaf839f8b3768b799a931e0acda98dc1102a6f9eb9a7314a2ac3be50a1823ed9ded193640f
8f4e11adc024cc95706b807646b80371074b3250af40d54e8c73722e5844fe6d994e43014231e3b0948dd59b71fea82f3b4054b668553d2d49762e4bc00f96cb
1e7e75f62a07f7b1bbcb463bf6330e44bd1aeb0a3f5c2e318da9d0385456e17b2c2fad5448bb05af71207d380e6eaf7ddd351453c45c7fd75065ec6d2c8c5479
dc224b6b76a2bc945d82f9cf2629ca909449d8ac150f666b575f10f7b1a1bbea09a56f0943cb0fd264d11f87ef5e712e340fa28e18ca4353e84f2c9dfdbedb15
$CDNENCFINISH
.ends TOP_UCC28730_netlist_U2_S1
*$
** Wrapper definitions for AA legacy support **
.subckt d_d1 1 2
$CDNENCSTART
eee8c5c7a2bc4b01f045f303678664e7916da0bae22e8cb0bba041dd67c69ce448ea70148a9ac1670c8926c1ac5057c8ccfcd77bf87ca9dc4985777ec81e872e
1580a2664af5c9b71dffb53947c4a050a57bb87580e4fabd0501b7a2929c29f661c01a05a37c2b9114bedc8c1ce83ef4a0bc1f02c27b217bf76d3d0c466b4521
0697746efb67a3a341e6e617f9adb7445d82f9cf2629ca909449d8ac150f666b575f10f7b1a1bbea09a56f0943cb0fd264d11f87ef5e712eef3854b82a896c3f
f7a854a98d732f8b65b706867a9136e62c396375bc586770da6db763bf02499cae507e0431e942c1d56bdc167827a12972350787b9f6338d37ec585c63ac60f2
39c84b0c9f72e0078e024cbd033ee0af2c396375bc586770da6db763bf02499cae507e0431e942c1d56bdc167827a12972350787b9f6338d37ec585c63ac60f2
0660a0f5c4a1d536aad0cae5ebf3019a0d0beb89c00d7d5782ebdcbe25b3c5a0c4819ece1c9d3c2bed1efe3fc20d2375e00b27168b25fa884aeece00d8776ee5
eff9bf1926aa5ce18c73722e5844fe6d994e43014231e3b0948dd59b71fea82f3b4054b668553d2dbd9b11b4426a3f1ad9aa5e45e9a37d5e411329eecc69143a
$CDNENCFINISH
.ends d_d1
*$
***********************************************************
***********************************************************
***********************************************************
***********************************************************
.subckt modulator_netlist  WAKE_L LOW_F CS EN LR V5 VC VS VAL_DIS CC_LIMIT VCx5 VDD
+ ZCD_FIRST DRV WAIT_EX FAULT_CS MINP FAULT_LL WAIT FAULT_OC ZCUR LOW_PWR EN_DLY IMINP TDM_START GND
$CDNENCSTART
eee8c5c7a2bc4b01f045f303678664e7916da0bae22e8cb0bba041dd67c69ce448ea70148a9ac1670c8926c1ac5057c8ccfcd77bf87ca9dc4985777ec81e872e
4282a1f91d4d7b3179568d22fc89292a8db24bb1e521583d4a93e93b3e0faf39c1fffd065e654895ab63a5d55603cbe45bc0a4747583768862abae35df3c3a46
2b3adeaa6c68cb8f2c396375bc586770da6db763bf02499cae507e0431e942c1d56bdc167827a12972350787b9f6338d65d0cfe03de6a54da01da9c7f5e432f9
4282a1f91d4d7b313d50d5872a8637788db24bb1e521583de8055d31001b86716d99dc5f446bf86f4b2216db45e6a51bee3ba26a3e913077d2c0ea702584563a
e776e9b255bda08cbfd81d659a09e4b36bf55428c35ad9f81042826a84203a90dd5402b0706abd10d8de1fde589b278e47cfac0dd656a0b1253a5dd8fcc2b899
8767f397bff4c3a731bbfa71d5efb6fe102372497787b35c8c73722e5844fe6d994e43014231e3b0948dd59b71fea82f3b4054b668553d2d49762e4bc00f96cb
c9fd634f6920d884aa02f20750a3e8a6a60fd3951de4fe9437940f9537e9f4941da317aaf2322bef8a478f842e59156362d766f77596a54b1c022559c34d47a8
3feb74ea9b601f6f96e68550d62e1189f5f581c7d2cb1545bd8707f3212772dfb8b832ab03dc07a2ebf48c7593aae9ae2c396375bc586770d75fe8a57b972f70
4282a1f91d4d7b31e9d916970355d52254f720ab581a5d2d12f26b4c1d7ddec427ed1ae3f5302ea5eb662bcc2469598734baae48b52cfd9f64a359a30f616013
2dd5fde173b261c6e7060be85f879a1eac3d35bce705b34d3f9df3a1b96565dd6bf55428c35ad9f81042826a84203a90dd5402b0706abd10c965be72670dc43a
4282a1f91d4d7b31ce911af848f5fcae7cb6d75c9dd6f5dc3c266d8890d1321f2fd369a67bc1713975963efd3ee34e16b032015482838020199902ef25e0ffab
d24b51ea77d68888768b799a931e0acda98dc1102a6f9eb9a7314a2ac3be50a10f70b39ab0a118e4a7769828c7529932996bcf998245fcff8c49116765d49071
4b6085f2012636675a0aa31c52cddba976617f42cd5d956b0d0beb89c00d7d5782ebdcbe25b3c5a0c4819ece1c9d3c2bed1efe3fc20d237553769a21d78ba437
4282a1f91d4d7b31be7f2d8e863baaf98db24bb1e521583d0f9439e6e59962974fc69d43ac29d590eb662bcc246959870bc9f5df614b86cca1964dccad606056
31db346d33b6eabe5d82f9cf2629ca909449d8ac150f666b575f10f7b1a1bbea09a56f0943cb0fd264d11f87ef5e712e340fa28e18ca4353e84f2c9dfdbedb15
a02a7bc2381774d81d5c0db0ae0b094b9016a1e37c9e14cc6807f6eedb12369e28b7302b26999e6f8dcea2cdd2d3d5cc9783ae8e4821c68fb9549840541e7e65
2b1410deca799d738c73722e5844fe6d994e43014231e3b0948dd59b71fea82f3b4054b668553d2dbd9b11b4426a3f1ad9aa5e45e9a37d5e411329eecc69143a
4b6085f2012636675a0aa31c52cddba976617f42cd5d956b0d0beb89c00d7d5782ebdcbe25b3c5a0c4819ece1c9d3c2bed1efe3fc20d237553769a21d78ba437
c9fd634f6920d8846bb02f7c3ba3e30ee821f6270a2f724a16bdcca29c10b371f2c2a911a865412412f26b4c1d7ddec438060d17afddee6a62cc5b78eec91cbc
4282a1f91d4d7b3118629f37d61b01f383e5b6bb506fda0b97613fdd3ebc185e6d99dc5f446bf86fb26c47e9e7e4ba152bedc960da1a246936a7df738d240b57
ffaef19da751c562b874a940c8205fc6b8b9eee94e5ee66c7aa3474ace3418a4110e94ff7a3589bca41a7cab6b87d754c900316c95648600638896e03709d977
2dd5fde173b261c6e7060be85f879a1eac3d35bce705b34dbcf71b37ffad27bd6bf55428c35ad9f81042826a84203a90dd5402b0706abd10c965be72670dc43a
3feb74ea9b601f6f117b0a167e4231b28db24bb1e521583d0f9439e6e59962975d8595df2af77ba7ad74a44220c4aff82c396375bc586770d75fe8a57b972f70
44ecb07a2ce277b63016a137105ca47cf5f581c7d2cb154583e5b6bb506fda0b57b069ab2121240fc885a7eb480c503f00d3e0b087c7374407a2de485ea5eada
3feb74ea9b601f6f5e9a9e0cb673f6a98db24bb1e521583d0f9439e6e59962970523616a51e4aa367b87b95149a11de71306bbc2da10c36aff4c8228edd5de43
4282a1f91d4d7b319e444f772322802e8db24bb1e521583d0f9439e6e5996297c4d3006443844accf612a95fdad817866feb6c4ca8501088d08dec202f184b66
d2bbd7e847d638e1f9160e96a49a6a05a57bb87580e4fabd0501b7a2929c29f661c01a05a37c2b9114bedc8c1ce83ef4a0bc1f02c27b217bf76d3d0c466b4521
cdaa385411811e27bfd81d659a09e4b32637e9cac2aa5ceafd49a287c76beca9cf3db11be0503885b874a940c8205fc6b8b9eee94e5ee66ce6718551570c0be6
4282a1f91d4d7b3116c020b4c19088298db24bb1e521583d94debb73d5463d201c66eea918637c09dfb80bd55237766f37940f9537e9f494e9220d8d8bc9ff2e
886999a0fb22bd608dcea2cdd2d3d5cc571415143e3e61680d0beb89c00d7d5782ebdcbe25b3c5a0c4819ece1c9d3c2bed1efe3fc20d237553769a21d78ba437
cdaa385411811e27bfd81d659a09e4b32637e9cac2aa5ceafd49a287c76beca9cf3db11be0503885b874a940c8205fc6b8b9eee94e5ee66ce6718551570c0be6
4282a1f91d4d7b319841d828eee527d35b2a3691222f6fe257332487ccaebd20306a16f89523dd1ab41a55be660a9ac075963efd3ee34e160ff63032dc4e41c4
bfd81d659a09e4b3d24b51ea77d68888768b799a931e0acda98dc1102a6f9eb9a7314a2ac3be50a10f70b39ab0a118e4a7769828c7529932143ffec2441cadca
4b6085f2012636675a0aa31c52cddba976617f42cd5d956b0d0beb89c00d7d5782ebdcbe25b3c5a0c4819ece1c9d3c2bed1efe3fc20d237553769a21d78ba437
3feb74ea9b601f6fc623eb9011b74a998db24bb1e521583d0f9439e6e5996297a17d02c2d3f851bc325c7924432f2f475d82f9cf2629ca903b6acdccc776ede8
4282a1f91d4d7b315e57969676231e6c8db24bb1e521583d0f9439e6e599629794c161a6824ed0afa15f67901ca71747de2b5b252a88911062abae35df3c3a46
bb6ee243faaf09ac5d82f9cf2629ca909449d8ac150f666b575f10f7b1a1bbea09a56f0943cb0fd264d11f87ef5e712e340fa28e18ca4353e84f2c9dfdbedb15
c9fd634f6920d884ca9a71e686ac5d1ab585b96681e0ca9b74067200a5c42109628fde9da4f8a5e5958970fdc46e0d01bad6bbeb41e0d0c42725283b4c5e486f
00d3e0b087c737445d82f9cf2629ca909449d8ac150f666b575f10f7b1a1bbea09a56f0943cb0fd264d11f87ef5e712e340fa28e18ca4353e84f2c9dfdbedb15
4282a1f91d4d7b31a4710ee9bf665d77a665d0fac02ce03e74067200a5c42109628fde9da4f8a5e56b14ba78cec579a7a0acb35e8724ccdf8d54c21f56f79c09
99553d7485e24f1a8c73722e5844fe6d994e43014231e3b0948dd59b71fea82f3b4054b668553d2dbd9b11b4426a3f1ad9aa5e45e9a37d5e411329eecc69143a
a02a7bc2381774d8d1bb0fefe5d016ce6a1bc7904dcbfea46baa4c351fc5e3ad60a188d940e604c11933952b4dcad44ca68ba69006c80e09d9eda28d3f69b96f
0736b9aea252cd5465bd351ff9bed5625d82f9cf2629ca909449d8ac150f666b575f10f7b1a1bbea09a56f0943cb0fd264d11f87ef5e712eef3854b82a896c3f
c9fd634f6920d884ca9a71e686ac5d1aeb87848776396383719e99726b68fc4f1a9fc789188e9733644126c9831a96bd0d0beb89c00d7d573efe8ab7bf02a6d0
4282a1f91d4d7b3130595e03b4261507f6a2b547dc976ba074067200a5c42109628fde9da4f8a5e556bba20cdbaeee0ba0acb35e8724ccdf8d54c21f56f79c09
5348900efd43a1b38c73722e5844fe6d994e43014231e3b0948dd59b71fea82f3b4054b668553d2dbd9b11b4426a3f1ad9aa5e45e9a37d5e411329eecc69143a
a02a7bc2381774d8d1bb0fefe5d016cefed04227402de62f7662f9e929a451ee8318958aa75d45564651b4c215cbe2b1f448aa8b445158d32d602cb3c5dbd2bb
ad0b6fb86357180409f392a0688e506c2c396375bc586770da6db763bf02499cae507e0431e942c1d56bdc167827a12972350787b9f6338d37ec585c63ac60f2
4282a1f91d4d7b3130595e03b4261507bf230db17611f82f74067200a5c42109628fde9da4f8a5e5578cfa8c70be19eba0acb35e8724ccdf8d54c21f56f79c09
ddc309ecb93923f48c73722e5844fe6d994e43014231e3b0948dd59b71fea82f3b4054b668553d2dbd9b11b4426a3f1ad9aa5e45e9a37d5e411329eecc69143a
a02a7bc2381774d8d1bb0fefe5d016cedf8f0baee957a3e17662f9e929a451ee8318958aa75d45564651b4c215cbe2b1f448aa8b445158d32d602cb3c5dbd2bb
ad0b6fb86357180409f392a0688e506c2c396375bc586770da6db763bf02499cae507e0431e942c1d56bdc167827a12972350787b9f6338d37ec585c63ac60f2
4282a1f91d4d7b31ed4f0fb29c860c47e821f6270a2f724a459ba551c58df4073e05e83a3c7747830afcf0b91c542dbcb7cb11ebaf1eae55ce3e8583bcbe141a
f4f2d8b6fb41cb4fb874a940c8205fc6b8b9eee94e5ee66c7aa3474ace3418a4110e94ff7a3589bca41a7cab6b87d754c900316c95648600638896e03709d977
4282a1f91d4d7b3130595e03b4261507a665d0fac02ce03efd249eecd7da229837940f9537e9f494a5cd70f837aea11bde0e18caa485070b2d6892b09974774c
8318958aa75d4556dad4b7980b83d60c768b799a931e0acda98dc1102a6f9eb9a7314a2ac3be50a10f70b39ab0a118e4a7769828c7529932143ffec2441cadca
bbf0a766f49a242c2637e9cac2aa5ceafd49a287c76beca9cf3db11be0503885b874a940c8205fc6b8b9eee94e5ee66c7aa3474ace3418a4c240d66d64eb0ead
4282a1f91d4d7b3130595e03b4261507bc27f931268b4061fd249eecd7da229837940f9537e9f494a5cd70f837aea11b65b50e6f6cfacc702d6892b09974774c
8318958aa75d4556dad4b7980b83d60c768b799a931e0acda98dc1102a6f9eb9a7314a2ac3be50a10f70b39ab0a118e4a7769828c7529932143ffec2441cadca
bbf0a766f49a242c2637e9cac2aa5ceafd49a287c76beca9cf3db11be0503885b874a940c8205fc6b8b9eee94e5ee66c7aa3474ace3418a4c240d66d64eb0ead
4282a1f91d4d7b3100437c764c34c66aeb8784877639638374067200a5c42109628fde9da4f8a5e599cc195faeddac45a0acb35e8724ccdf8d54c21f56f79c09
b2707b47b3d391d7dd2801e5ca77dcc66bf55428c35ad9f81042826a84203a90dd5402b0706abd10d8de1fde589b278e47cfac0dd656a0b1253a5dd8fcc2b899
cf8b935b19d10a9da0d3fe6964db0cb48b76e1023bea0c168dcea2cdd2d3d5cc9783ae8e4821c68f44286f328a01b5597353264ebf8b05514faeff92adf05540
ee296b5d6cfe99f62c396375bc586770da6db763bf02499cae507e0431e942c1d56bdc167827a12972350787b9f6338d65d0cfe03de6a54da01da9c7f5e432f9
aa617ab854740919158883086c6ad8589f50c449b546348cee9bd197d629c53cd1bb0fefe5d016ce171da87121f39200749d13634498f34b14610ea48596c78b